/*---------------------------------------------------------------------------*\
  =========                 |
  \\      /  F ield         | OpenFOAM: The Open Source CFD Toolbox
   \\    /   O peration     | Website:  https://openfoam.org
    \\  /    A nd           | Version:  dev
     \\/     M anipulation  |
\*---------------------------------------------------------------------------*/
Build  : dev-c5107bc42fa5
Exec   : icoFoam
Date   : May 02 2023
Time   : 18:06:40
Host   : "utfpr"
PID    : 8040
I/O    : uncollated
Case   : /home/utfpr/OpenFOAM/utfpr-dev/run/cavidades/cavity72x72
nProcs : 1
sigFpe : Enabling floating point exception trapping (FOAM_SIGFPE).
fileModificationChecking : Monitoring run-time modified files using timeStampMaster (fileModificationSkew 10)
allowSystemOperations : Allowing user-supplied system call operations

// * * * * * * * * * * * * * * * * * * * * * * * * * * * * * * * * * * * * * //
Create time

Create mesh for time = 0

Reading physicalProperties

Reading field p

Reading field U

Reading/calculating face flux field phi


Starting time loop

Reading set description:
    line

Reading set description:
    line

Time = 0.045s

Courant Number mean: 0 max: 0
smoothSolver:  Solving for Ux, Initial residual = 1, Final residual = 7.77179e-06, No Iterations 23
smoothSolver:  Solving for Uy, Initial residual = 0, Final residual = 0, No Iterations 0
DICPCG:  Solving for p, Initial residual = 1, Final residual = 0.0412816, No Iterations 86
time step continuity errors : sum local = 7.496e-05, global = -1.05583e-19, cumulative = -1.05583e-19
DICPCG:  Solving for p, Initial residual = 0.557232, Final residual = 9.31302e-07, No Iterations 125
time step continuity errors : sum local = 2.88489e-09, global = 9.98287e-21, cumulative = -9.55998e-20
ExecutionTime = 0.145327 s  ClockTime = 0 s

Time = 0.09s

Courant Number mean: 0.13392 max: 2.15655
smoothSolver:  Solving for Ux, Initial residual = 0.168749, Final residual = 8.05416e-06, No Iterations 23
smoothSolver:  Solving for Uy, Initial residual = 0.307651, Final residual = 7.26261e-06, No Iterations 26
DICPCG:  Solving for p, Initial residual = 0.467858, Final residual = 0.0226401, No Iterations 43
time step continuity errors : sum local = 8.18961e-05, global = 1.44033e-19, cumulative = 4.84329e-20
DICPCG:  Solving for p, Initial residual = 0.3835, Final residual = 9.5122e-07, No Iterations 123
time step continuity errors : sum local = 2.94338e-09, global = -4.8856e-19, cumulative = -4.40127e-19
ExecutionTime = 0.165907 s  ClockTime = 0 s

Time = 0.135s

Courant Number mean: 0.204585 max: 2.64593
smoothSolver:  Solving for Ux, Initial residual = 0.0649095, Final residual = 6.69321e-06, No Iterations 21
smoothSolver:  Solving for Uy, Initial residual = 0.134863, Final residual = 7.83456e-06, No Iterations 24
DICPCG:  Solving for p, Initial residual = 0.281232, Final residual = 0.0133165, No Iterations 80
time step continuity errors : sum local = 3.51506e-05, global = 9.04314e-20, cumulative = -3.49696e-19
DICPCG:  Solving for p, Initial residual = 0.20567, Final residual = 8.99229e-07, No Iterations 117
time step continuity errors : sum local = 2.69446e-09, global = 2.19013e-20, cumulative = -3.27795e-19
ExecutionTime = 0.188321 s  ClockTime = 0 s

Time = 0.18s

Courant Number mean: 0.249681 max: 2.78953
smoothSolver:  Solving for Ux, Initial residual = 0.0420768, Final residual = 8.10171e-06, No Iterations 20
smoothSolver:  Solving for Uy, Initial residual = 0.0767546, Final residual = 6.87672e-06, No Iterations 23
DICPCG:  Solving for p, Initial residual = 0.137572, Final residual = 0.0056109, No Iterations 83
time step continuity errors : sum local = 1.34071e-05, global = 4.98254e-20, cumulative = -2.77969e-19
DICPCG:  Solving for p, Initial residual = 0.11106, Final residual = 8.21717e-07, No Iterations 117
time step continuity errors : sum local = 2.019e-09, global = -1.63367e-19, cumulative = -4.41337e-19
ExecutionTime = 0.210305 s  ClockTime = 0 s

Time = 0.225s

Courant Number mean: 0.284153 max: 2.85803
smoothSolver:  Solving for Ux, Initial residual = 0.030447, Final residual = 9.58809e-06, No Iterations 19
smoothSolver:  Solving for Uy, Initial residual = 0.0550529, Final residual = 7.79269e-06, No Iterations 22
DICPCG:  Solving for p, Initial residual = 0.105357, Final residual = 0.00471165, No Iterations 40
time step continuity errors : sum local = 1.19608e-05, global = -1.69934e-19, cumulative = -6.11271e-19
DICPCG:  Solving for p, Initial residual = 0.0903129, Final residual = 9.42881e-07, No Iterations 116
time step continuity errors : sum local = 2.23057e-09, global = 6.74863e-20, cumulative = -5.43784e-19
ExecutionTime = 0.228935 s  ClockTime = 0 s

Time = 0.27s

Courant Number mean: 0.312201 max: 2.89966
smoothSolver:  Solving for Ux, Initial residual = 0.0238154, Final residual = 7.89886e-06, No Iterations 19
smoothSolver:  Solving for Uy, Initial residual = 0.0439273, Final residual = 9.4579e-06, No Iterations 21
DICPCG:  Solving for p, Initial residual = 0.0874233, Final residual = 0.00402561, No Iterations 40
time step continuity errors : sum local = 1.08963e-05, global = -1.47463e-19, cumulative = -6.91248e-19
DICPCG:  Solving for p, Initial residual = 0.0759577, Final residual = 8.59698e-07, No Iterations 113
time step continuity errors : sum local = 2.02749e-09, global = -1.1121e-19, cumulative = -8.02458e-19
ExecutionTime = 0.246825 s  ClockTime = 0 s

Time = 0.315s

Courant Number mean: 0.336105 max: 2.92859
smoothSolver:  Solving for Ux, Initial residual = 0.0203306, Final residual = 7.20698e-06, No Iterations 19
smoothSolver:  Solving for Uy, Initial residual = 0.0353134, Final residual = 7.61377e-06, No Iterations 21
DICPCG:  Solving for p, Initial residual = 0.0764694, Final residual = 0.00311345, No Iterations 80
time step continuity errors : sum local = 7.37471e-06, global = 2.01338e-19, cumulative = -6.01119e-19
DICPCG:  Solving for p, Initial residual = 0.0652117, Final residual = 6.97913e-07, No Iterations 116
time step continuity errors : sum local = 1.68359e-09, global = 3.07296e-20, cumulative = -5.7039e-19
ExecutionTime = 0.268516 s  ClockTime = 0 s

Time = 0.36s

Courant Number mean: 0.356791 max: 2.95026
smoothSolver:  Solving for Ux, Initial residual = 0.01687, Final residual = 9.26909e-06, No Iterations 18
smoothSolver:  Solving for Uy, Initial residual = 0.0303977, Final residual = 6.70686e-06, No Iterations 21
DICPCG:  Solving for p, Initial residual = 0.0650677, Final residual = 0.00280223, No Iterations 40
time step continuity errors : sum local = 6.65928e-06, global = -4.62627e-19, cumulative = -1.03302e-18
DICPCG:  Solving for p, Initial residual = 0.0563041, Final residual = 8.7792e-07, No Iterations 113
time step continuity errors : sum local = 2.07364e-09, global = 2.81044e-19, cumulative = -7.51973e-19
ExecutionTime = 0.286706 s  ClockTime = 0 s

Time = 0.405s

Courant Number mean: 0.37523 max: 2.96715
smoothSolver:  Solving for Ux, Initial residual = 0.0145656, Final residual = 8.278e-06, No Iterations 18
smoothSolver:  Solving for Uy, Initial residual = 0.0263138, Final residual = 8.71259e-06, No Iterations 20
DICPCG:  Solving for p, Initial residual = 0.0591481, Final residual = 0.00276839, No Iterations 40
time step continuity errors : sum local = 7.45452e-06, global = -5.04198e-19, cumulative = -1.25617e-18
DICPCG:  Solving for p, Initial residual = 0.0527999, Final residual = 9.13678e-07, No Iterations 114
time step continuity errors : sum local = 2.16515e-09, global = 1.98792e-19, cumulative = -1.05738e-18
ExecutionTime = 0.305928 s  ClockTime = 0 s

Time = 0.45s

Courant Number mean: 0.39169 max: 2.98102
smoothSolver:  Solving for Ux, Initial residual = 0.0127145, Final residual = 7.32698e-06, No Iterations 18
smoothSolver:  Solving for Uy, Initial residual = 0.0239227, Final residual = 7.91884e-06, No Iterations 20
DICPCG:  Solving for p, Initial residual = 0.056247, Final residual = 0.00258761, No Iterations 80
time step continuity errors : sum local = 6.13537e-06, global = 3.9494e-19, cumulative = -6.62438e-19
DICPCG:  Solving for p, Initial residual = 0.0484578, Final residual = 7.83437e-07, No Iterations 111
time step continuity errors : sum local = 1.88548e-09, global = -4.0433e-19, cumulative = -1.06677e-18
ExecutionTime = 0.342297 s  ClockTime = 0 s

Time = 0.495s

Courant Number mean: 0.406635 max: 2.99248
smoothSolver:  Solving for Ux, Initial residual = 0.0114649, Final residual = 6.85706e-06, No Iterations 18
smoothSolver:  Solving for Uy, Initial residual = 0.0208677, Final residual = 6.93679e-06, No Iterations 20
DICPCG:  Solving for p, Initial residual = 0.0491114, Final residual = 0.00226559, No Iterations 40
time step continuity errors : sum local = 6.25403e-06, global = -3.83418e-19, cumulative = -1.45019e-18
DICPCG:  Solving for p, Initial residual = 0.0428953, Final residual = 9.98298e-07, No Iterations 111
time step continuity errors : sum local = 2.37556e-09, global = -5.43382e-19, cumulative = -1.99357e-18
ExecutionTime = 0.366799 s  ClockTime = 0 s

Time = 0.54s

Courant Number mean: 0.420364 max: 3.00234
smoothSolver:  Solving for Ux, Initial residual = 0.0102171, Final residual = 9.23671e-06, No Iterations 17
smoothSolver:  Solving for Uy, Initial residual = 0.0194486, Final residual = 9.63936e-06, No Iterations 19
DICPCG:  Solving for p, Initial residual = 0.0494525, Final residual = 0.00245668, No Iterations 80
time step continuity errors : sum local = 5.87516e-06, global = -4.00241e-19, cumulative = -2.39381e-18
DICPCG:  Solving for p, Initial residual = 0.0427691, Final residual = 9.09225e-07, No Iterations 113
time step continuity errors : sum local = 2.20323e-09, global = 5.81025e-20, cumulative = -2.33571e-18
ExecutionTime = 0.388 s  ClockTime = 0 s

Time = 0.585s

Courant Number mean: 0.432952 max: 3.01073
smoothSolver:  Solving for Ux, Initial residual = 0.00938485, Final residual = 8.75664e-06, No Iterations 17
smoothSolver:  Solving for Uy, Initial residual = 0.017247, Final residual = 8.5694e-06, No Iterations 19
DICPCG:  Solving for p, Initial residual = 0.0430705, Final residual = 0.00182009, No Iterations 40
time step continuity errors : sum local = 5.07165e-06, global = 1.05904e-19, cumulative = -2.2298e-18
DICPCG:  Solving for p, Initial residual = 0.0376035, Final residual = 6.76025e-07, No Iterations 114
time step continuity errors : sum local = 1.61603e-09, global = -4.47992e-20, cumulative = -2.2746e-18
ExecutionTime = 0.405973 s  ClockTime = 0 s

Time = 0.63s

Courant Number mean: 0.444575 max: 3.01812
smoothSolver:  Solving for Ux, Initial residual = 0.00849472, Final residual = 7.94513e-06, No Iterations 17
smoothSolver:  Solving for Uy, Initial residual = 0.0162708, Final residual = 8.08562e-06, No Iterations 19
DICPCG:  Solving for p, Initial residual = 0.0429565, Final residual = 0.00199756, No Iterations 81
time step continuity errors : sum local = 4.79254e-06, global = 2.96665e-19, cumulative = -1.97794e-18
DICPCG:  Solving for p, Initial residual = 0.0373791, Final residual = 9.56494e-07, No Iterations 113
time step continuity errors : sum local = 2.32117e-09, global = -3.03688e-19, cumulative = -2.28162e-18
ExecutionTime = 0.426965 s  ClockTime = 0 s

Time = 0.675s

Courant Number mean: 0.455485 max: 3.02455
smoothSolver:  Solving for Ux, Initial residual = 0.00790173, Final residual = 7.59769e-06, No Iterations 17
smoothSolver:  Solving for Uy, Initial residual = 0.0146268, Final residual = 7.28425e-06, No Iterations 19
DICPCG:  Solving for p, Initial residual = 0.0379424, Final residual = 0.00156075, No Iterations 40
time step continuity errors : sum local = 4.34833e-06, global = 5.83266e-19, cumulative = -1.69836e-18
DICPCG:  Solving for p, Initial residual = 0.0331909, Final residual = 9.79095e-07, No Iterations 113
time step continuity errors : sum local = 2.34995e-09, global = 1.64617e-19, cumulative = -1.53374e-18
ExecutionTime = 0.444829 s  ClockTime = 0 s

Time = 0.72s

Courant Number mean: 0.465669 max: 3.03033
smoothSolver:  Solving for Ux, Initial residual = 0.00723626, Final residual = 6.95524e-06, No Iterations 17
smoothSolver:  Solving for Uy, Initial residual = 0.0139281, Final residual = 6.93275e-06, No Iterations 19
DICPCG:  Solving for p, Initial residual = 0.0380838, Final residual = 0.00184309, No Iterations 80
time step continuity errors : sum local = 4.45523e-06, global = 2.9981e-19, cumulative = -1.23393e-18
DICPCG:  Solving for p, Initial residual = 0.033174, Final residual = 8.33938e-07, No Iterations 113
time step continuity errors : sum local = 2.02638e-09, global = -6.28221e-19, cumulative = -1.86215e-18
ExecutionTime = 0.466092 s  ClockTime = 0 s

Time = 0.765s

Courant Number mean: 0.475193 max: 3.03545
smoothSolver:  Solving for Ux, Initial residual = 0.00679597, Final residual = 6.6937e-06, No Iterations 17
smoothSolver:  Solving for Uy, Initial residual = 0.0126692, Final residual = 9.41407e-06, No Iterations 18
DICPCG:  Solving for p, Initial residual = 0.0339258, Final residual = 0.00127587, No Iterations 40
time step continuity errors : sum local = 3.55803e-06, global = 3.10649e-20, cumulative = -1.83109e-18
DICPCG:  Solving for p, Initial residual = 0.0297234, Final residual = 8.28831e-07, No Iterations 113
time step continuity errors : sum local = 1.99539e-09, global = -9.82743e-20, cumulative = -1.92936e-18
ExecutionTime = 0.484208 s  ClockTime = 0 s

Time = 0.81s

Courant Number mean: 0.484136 max: 3.04011
smoothSolver:  Solving for Ux, Initial residual = 0.00628025, Final residual = 9.25848e-06, No Iterations 16
smoothSolver:  Solving for Uy, Initial residual = 0.0121099, Final residual = 8.99871e-06, No Iterations 18
DICPCG:  Solving for p, Initial residual = 0.0341467, Final residual = 0.00168295, No Iterations 73
time step continuity errors : sum local = 4.10735e-06, global = 1.48245e-18, cumulative = -4.46916e-19
DICPCG:  Solving for p, Initial residual = 0.029839, Final residual = 9.67212e-07, No Iterations 112
time step continuity errors : sum local = 2.35187e-09, global = -1.74045e-19, cumulative = -6.20961e-19
ExecutionTime = 0.504645 s  ClockTime = 0 s

Time = 0.855s

Courant Number mean: 0.492641 max: 3.04426
smoothSolver:  Solving for Ux, Initial residual = 0.00598419, Final residual = 9.0105e-06, No Iterations 16
smoothSolver:  Solving for Uy, Initial residual = 0.0111777, Final residual = 8.31722e-06, No Iterations 18
DICPCG:  Solving for p, Initial residual = 0.0313478, Final residual = 0.00152384, No Iterations 39
time step continuity errors : sum local = 4.05355e-06, global = -2.1188e-19, cumulative = -8.32841e-19
DICPCG:  Solving for p, Initial residual = 0.0275505, Final residual = 7.19855e-07, No Iterations 113
time step continuity errors : sum local = 1.73694e-09, global = -6.16048e-19, cumulative = -1.44889e-18
ExecutionTime = 0.522265 s  ClockTime = 0 s

Time = 0.9s

Courant Number mean: 0.500701 max: 3.04809
smoothSolver:  Solving for Ux, Initial residual = 0.00552587, Final residual = 8.3037e-06, No Iterations 16
smoothSolver:  Solving for Uy, Initial residual = 0.0106852, Final residual = 7.94645e-06, No Iterations 18
DICPCG:  Solving for p, Initial residual = 0.0313859, Final residual = 0.00152585, No Iterations 69
time step continuity errors : sum local = 3.72507e-06, global = -2.32165e-19, cumulative = -1.68105e-18
DICPCG:  Solving for p, Initial residual = 0.0273793, Final residual = 9.14783e-07, No Iterations 111
time step continuity errors : sum local = 2.22649e-09, global = 7.27344e-19, cumulative = -9.5371e-19
ExecutionTime = 0.555555 s  ClockTime = 0 s

Time = 0.945s

Courant Number mean: 0.508325 max: 3.05151
smoothSolver:  Solving for Ux, Initial residual = 0.00531637, Final residual = 8.14613e-06, No Iterations 16
smoothSolver:  Solving for Uy, Initial residual = 0.00989346, Final residual = 7.37847e-06, No Iterations 18
DICPCG:  Solving for p, Initial residual = 0.0285198, Final residual = 0.00136265, No Iterations 39
time step continuity errors : sum local = 3.69234e-06, global = -1.48714e-19, cumulative = -1.10242e-18
DICPCG:  Solving for p, Initial residual = 0.0250873, Final residual = 8.85733e-07, No Iterations 112
time step continuity errors : sum local = 2.14277e-09, global = 1.20571e-18, cumulative = 1.03287e-19
ExecutionTime = 0.579611 s  ClockTime = 0 s

Time = 0.99s

Courant Number mean: 0.51556 max: 3.05467
smoothSolver:  Solving for Ux, Initial residual = 0.00492547, Final residual = 7.50146e-06, No Iterations 16
smoothSolver:  Solving for Uy, Initial residual = 0.00955621, Final residual = 7.10833e-06, No Iterations 18
DICPCG:  Solving for p, Initial residual = 0.0290167, Final residual = 0.0012775, No Iterations 69
time step continuity errors : sum local = 3.11707e-06, global = 3.68598e-19, cumulative = 4.71885e-19
DICPCG:  Solving for p, Initial residual = 0.0252702, Final residual = 9.07572e-07, No Iterations 111
time step continuity errors : sum local = 2.21761e-09, global = -8.2737e-19, cumulative = -3.55485e-19
ExecutionTime = 0.599845 s  ClockTime = 0 s

Time = 1.035s

Courant Number mean: 0.522435 max: 3.05756
smoothSolver:  Solving for Ux, Initial residual = 0.00475906, Final residual = 7.38707e-06, No Iterations 16
smoothSolver:  Solving for Uy, Initial residual = 0.0088552, Final residual = 9.84845e-06, No Iterations 17
DICPCG:  Solving for p, Initial residual = 0.0258624, Final residual = 0.00120715, No Iterations 39
time step continuity errors : sum local = 3.30799e-06, global = -2.89268e-19, cumulative = -6.44753e-19
DICPCG:  Solving for p, Initial residual = 0.0228003, Final residual = 8.5318e-07, No Iterations 111
time step continuity errors : sum local = 2.07396e-09, global = 3.03454e-20, cumulative = -6.14408e-19
ExecutionTime = 0.616891 s  ClockTime = 0 s

Time = 1.08s

Courant Number mean: 0.529032 max: 3.06023
smoothSolver:  Solving for Ux, Initial residual = 0.00443612, Final residual = 6.8407e-06, No Iterations 16
smoothSolver:  Solving for Uy, Initial residual = 0.00860059, Final residual = 9.54077e-06, No Iterations 17
DICPCG:  Solving for p, Initial residual = 0.0266889, Final residual = 0.00124095, No Iterations 68
time step continuity errors : sum local = 3.02414e-06, global = 4.9655e-19, cumulative = -1.17858e-19
DICPCG:  Solving for p, Initial residual = 0.0232494, Final residual = 8.98281e-07, No Iterations 111
time step continuity errors : sum local = 2.19755e-09, global = 9.40811e-20, cumulative = -2.37771e-20
ExecutionTime = 0.636415 s  ClockTime = 0 s

Time = 1.125s

Courant Number mean: 0.535344 max: 3.06268
smoothSolver:  Solving for Ux, Initial residual = 0.00430484, Final residual = 6.75441e-06, No Iterations 16
smoothSolver:  Solving for Uy, Initial residual = 0.00798155, Final residual = 8.885e-06, No Iterations 17
DICPCG:  Solving for p, Initial residual = 0.0235133, Final residual = 0.00110908, No Iterations 39
time step continuity errors : sum local = 3.0776e-06, global = -5.45401e-19, cumulative = -5.69178e-19
DICPCG:  Solving for p, Initial residual = 0.0208004, Final residual = 8.95893e-07, No Iterations 110
time step continuity errors : sum local = 2.18492e-09, global = -1.7119e-19, cumulative = -7.40368e-19
ExecutionTime = 0.653386 s  ClockTime = 0 s

Time = 1.17s

Courant Number mean: 0.541379 max: 3.06494
smoothSolver:  Solving for Ux, Initial residual = 0.0040296, Final residual = 9.38727e-06, No Iterations 15
smoothSolver:  Solving for Uy, Initial residual = 0.00779819, Final residual = 8.6542e-06, No Iterations 17
DICPCG:  Solving for p, Initial residual = 0.0247356, Final residual = 0.00106295, No Iterations 68
time step continuity errors : sum local = 2.59256e-06, global = -1.40304e-19, cumulative = -8.80673e-19
DICPCG:  Solving for p, Initial residual = 0.0215466, Final residual = 9.88572e-07, No Iterations 110
time step continuity errors : sum local = 2.42369e-09, global = 1.40413e-20, cumulative = -8.66632e-19
ExecutionTime = 0.672386 s  ClockTime = 0 s

Time = 1.215s

Courant Number mean: 0.547156 max: 3.06704
smoothSolver:  Solving for Ux, Initial residual = 0.00392252, Final residual = 9.28502e-06, No Iterations 15
smoothSolver:  Solving for Uy, Initial residual = 0.00724305, Final residual = 8.06932e-06, No Iterations 17
DICPCG:  Solving for p, Initial residual = 0.0215939, Final residual = 0.00106492, No Iterations 34
time step continuity errors : sum local = 2.95065e-06, global = -4.37589e-19, cumulative = -1.30422e-18
DICPCG:  Solving for p, Initial residual = 0.0191809, Final residual = 9.13818e-07, No Iterations 110
time step continuity errors : sum local = 2.23213e-09, global = -4.42363e-19, cumulative = -1.74658e-18
ExecutionTime = 0.688965 s  ClockTime = 0 s

Time = 1.26s

Courant Number mean: 0.552684 max: 3.06898
smoothSolver:  Solving for Ux, Initial residual = 0.00365589, Final residual = 8.56842e-06, No Iterations 15
smoothSolver:  Solving for Uy, Initial residual = 0.00717862, Final residual = 7.97191e-06, No Iterations 17
DICPCG:  Solving for p, Initial residual = 0.0229106, Final residual = 0.000914246, No Iterations 68
time step continuity errors : sum local = 2.23717e-06, global = -8.50367e-19, cumulative = -2.59695e-18
DICPCG:  Solving for p, Initial residual = 0.0202381, Final residual = 9.72738e-07, No Iterations 110
time step continuity errors : sum local = 2.38909e-09, global = -1.13833e-19, cumulative = -2.71078e-18
ExecutionTime = 0.708187 s  ClockTime = 0 s

Time = 1.305s

Courant Number mean: 0.557977 max: 3.07081
smoothSolver:  Solving for Ux, Initial residual = 0.00357885, Final residual = 8.5257e-06, No Iterations 15
smoothSolver:  Solving for Uy, Initial residual = 0.00657622, Final residual = 7.32531e-06, No Iterations 17
DICPCG:  Solving for p, Initial residual = 0.0199441, Final residual = 0.00093449, No Iterations 33
time step continuity errors : sum local = 2.61133e-06, global = -7.43224e-19, cumulative = -3.45401e-18
DICPCG:  Solving for p, Initial residual = 0.0177004, Final residual = 8.63145e-07, No Iterations 110
time step continuity errors : sum local = 2.111e-09, global = 4.40791e-19, cumulative = -3.01322e-18
ExecutionTime = 0.724844 s  ClockTime = 0 s

Time = 1.35s

Courant Number mean: 0.563093 max: 3.07243
smoothSolver:  Solving for Ux, Initial residual = 0.00337433, Final residual = 7.98697e-06, No Iterations 15
smoothSolver:  Solving for Uy, Initial residual = 0.00656558, Final residual = 7.30111e-06, No Iterations 17
DICPCG:  Solving for p, Initial residual = 0.0207, Final residual = 0.000870551, No Iterations 68
time step continuity errors : sum local = 2.14257e-06, global = -1.10458e-18, cumulative = -4.1178e-18
DICPCG:  Solving for p, Initial residual = 0.0182677, Final residual = 8.72454e-07, No Iterations 110
time step continuity errors : sum local = 2.14261e-09, global = -4.92496e-19, cumulative = -4.61029e-18
ExecutionTime = 0.757831 s  ClockTime = 1 s

Time = 1.395s

Courant Number mean: 0.568029 max: 3.07403
smoothSolver:  Solving for Ux, Initial residual = 0.00331184, Final residual = 7.95148e-06, No Iterations 15
smoothSolver:  Solving for Uy, Initial residual = 0.00604965, Final residual = 6.75257e-06, No Iterations 17
DICPCG:  Solving for p, Initial residual = 0.0183323, Final residual = 0.000817967, No Iterations 33
time step continuity errors : sum local = 2.24723e-06, global = 4.24701e-19, cumulative = -4.18559e-18
DICPCG:  Solving for p, Initial residual = 0.0162616, Final residual = 7.8716e-07, No Iterations 110
time step continuity errors : sum local = 1.92498e-09, global = 2.13715e-19, cumulative = -3.97188e-18
ExecutionTime = 0.780541 s  ClockTime = 1 s

Time = 1.44s

Courant Number mean: 0.572776 max: 3.07544
smoothSolver:  Solving for Ux, Initial residual = 0.00312123, Final residual = 7.45408e-06, No Iterations 15
smoothSolver:  Solving for Uy, Initial residual = 0.00597797, Final residual = 9.92942e-06, No Iterations 16
DICPCG:  Solving for p, Initial residual = 0.0189408, Final residual = 0.000846495, No Iterations 67
time step continuity errors : sum local = 2.07413e-06, global = -1.80553e-19, cumulative = -4.15243e-18
DICPCG:  Solving for p, Initial residual = 0.0167718, Final residual = 8.80816e-07, No Iterations 109
time step continuity errors : sum local = 2.16118e-09, global = 6.01567e-19, cumulative = -3.55086e-18
ExecutionTime = 0.799594 s  ClockTime = 1 s

Time = 1.485s

Courant Number mean: 0.577355 max: 3.07682
smoothSolver:  Solving for Ux, Initial residual = 0.00306236, Final residual = 7.39797e-06, No Iterations 15
smoothSolver:  Solving for Uy, Initial residual = 0.00554124, Final residual = 9.23104e-06, No Iterations 16
DICPCG:  Solving for p, Initial residual = 0.0171493, Final residual = 0.000698696, No Iterations 33
time step continuity errors : sum local = 1.9755e-06, global = -6.14154e-20, cumulative = -3.61228e-18
DICPCG:  Solving for p, Initial residual = 0.0151884, Final residual = 8.40336e-07, No Iterations 109
time step continuity errors : sum local = 2.05853e-09, global = 1.64878e-19, cumulative = -3.4474e-18
ExecutionTime = 0.815806 s  ClockTime = 1 s

Time = 1.53s

Courant Number mean: 0.581763 max: 3.07804
smoothSolver:  Solving for Ux, Initial residual = 0.00290661, Final residual = 6.98883e-06, No Iterations 15
smoothSolver:  Solving for Uy, Initial residual = 0.00553356, Final residual = 9.19918e-06, No Iterations 16
DICPCG:  Solving for p, Initial residual = 0.0174641, Final residual = 0.000842558, No Iterations 67
time step continuity errors : sum local = 2.07859e-06, global = -3.84476e-19, cumulative = -3.83188e-18
DICPCG:  Solving for p, Initial residual = 0.0154734, Final residual = 6.70777e-07, No Iterations 106
time step continuity errors : sum local = 1.65081e-09, global = 8.19047e-20, cumulative = -3.74997e-18
ExecutionTime = 0.83477 s  ClockTime = 1 s

Time = 1.575s

Courant Number mean: 0.586016 max: 3.07925
smoothSolver:  Solving for Ux, Initial residual = 0.00286289, Final residual = 6.96003e-06, No Iterations 15
smoothSolver:  Solving for Uy, Initial residual = 0.0051395, Final residual = 8.57828e-06, No Iterations 16
DICPCG:  Solving for p, Initial residual = 0.015763, Final residual = 0.000642122, No Iterations 33
time step continuity errors : sum local = 1.77872e-06, global = 5.42171e-19, cumulative = -3.2078e-18
DICPCG:  Solving for p, Initial residual = 0.0139442, Final residual = 9.2029e-07, No Iterations 104
time step continuity errors : sum local = 2.25727e-09, global = 4.58491e-19, cumulative = -2.74931e-18
ExecutionTime = 0.851051 s  ClockTime = 1 s

Time = 1.62s

Courant Number mean: 0.590117 max: 3.08032
smoothSolver:  Solving for Ux, Initial residual = 0.00271054, Final residual = 9.79497e-06, No Iterations 14
smoothSolver:  Solving for Uy, Initial residual = 0.00507971, Final residual = 8.46345e-06, No Iterations 16
DICPCG:  Solving for p, Initial residual = 0.016106, Final residual = 0.000641253, No Iterations 67
time step continuity errors : sum local = 1.57323e-06, global = 5.31856e-19, cumulative = -2.21745e-18
DICPCG:  Solving for p, Initial residual = 0.0142682, Final residual = 8.59949e-07, No Iterations 104
time step continuity errors : sum local = 2.11578e-09, global = -6.39755e-19, cumulative = -2.85721e-18
ExecutionTime = 0.869626 s  ClockTime = 1 s

Time = 1.665s

Courant Number mean: 0.59408 max: 3.08137
smoothSolver:  Solving for Ux, Initial residual = 0.00266556, Final residual = 9.71624e-06, No Iterations 14
smoothSolver:  Solving for Uy, Initial residual = 0.00473653, Final residual = 7.91772e-06, No Iterations 16
DICPCG:  Solving for p, Initial residual = 0.0146998, Final residual = 0.000577985, No Iterations 33
time step continuity errors : sum local = 1.63912e-06, global = -5.08851e-20, cumulative = -2.90809e-18
DICPCG:  Solving for p, Initial residual = 0.0130068, Final residual = 9.00873e-07, No Iterations 104
time step continuity errors : sum local = 2.21415e-09, global = 1.61284e-18, cumulative = -1.29526e-18
ExecutionTime = 0.885724 s  ClockTime = 1 s

Time = 1.71s

Courant Number mean: 0.597929 max: 3.08229
smoothSolver:  Solving for Ux, Initial residual = 0.00254251, Final residual = 9.23317e-06, No Iterations 14
smoothSolver:  Solving for Uy, Initial residual = 0.00472839, Final residual = 7.8868e-06, No Iterations 16
DICPCG:  Solving for p, Initial residual = 0.0148976, Final residual = 0.000673595, No Iterations 67
time step continuity errors : sum local = 1.66917e-06, global = -5.15764e-19, cumulative = -1.81102e-18
DICPCG:  Solving for p, Initial residual = 0.0131959, Final residual = 8.99849e-07, No Iterations 106
time step continuity errors : sum local = 2.21731e-09, global = -1.4194e-19, cumulative = -1.95296e-18
ExecutionTime = 0.90437 s  ClockTime = 1 s

Time = 1.755s

Courant Number mean: 0.601661 max: 3.08322
smoothSolver:  Solving for Ux, Initial residual = 0.00250939, Final residual = 9.19445e-06, No Iterations 14
smoothSolver:  Solving for Uy, Initial residual = 0.00441929, Final residual = 7.40194e-06, No Iterations 16
DICPCG:  Solving for p, Initial residual = 0.0135388, Final residual = 0.000537678, No Iterations 33
time step continuity errors : sum local = 1.49097e-06, global = -8.93474e-19, cumulative = -2.84643e-18
DICPCG:  Solving for p, Initial residual = 0.01196, Final residual = 9.51419e-07, No Iterations 106
time step continuity errors : sum local = 2.33899e-09, global = 3.72752e-19, cumulative = -2.47368e-18
ExecutionTime = 0.920333 s  ClockTime = 1 s

Time = 1.8s

Courant Number mean: 0.605271 max: 3.08404
smoothSolver:  Solving for Ux, Initial residual = 0.00238571, Final residual = 8.71475e-06, No Iterations 14
smoothSolver:  Solving for Uy, Initial residual = 0.00436756, Final residual = 7.30176e-06, No Iterations 16
DICPCG:  Solving for p, Initial residual = 0.0137912, Final residual = 0.000663308, No Iterations 66
time step continuity errors : sum local = 1.63547e-06, global = -1.6483e-19, cumulative = -2.63851e-18
DICPCG:  Solving for p, Initial residual = 0.0122659, Final residual = 7.91631e-07, No Iterations 108
time step continuity errors : sum local = 1.95109e-09, global = 5.44939e-20, cumulative = -2.58402e-18
ExecutionTime = 0.952751 s  ClockTime = 1 s

Time = 1.845s

Courant Number mean: 0.608777 max: 3.08485
smoothSolver:  Solving for Ux, Initial residual = 0.00235067, Final residual = 8.64503e-06, No Iterations 14
smoothSolver:  Solving for Uy, Initial residual = 0.00409334, Final residual = 6.86761e-06, No Iterations 16
DICPCG:  Solving for p, Initial residual = 0.0127975, Final residual = 0.000467741, No Iterations 33
time step continuity errors : sum local = 1.34205e-06, global = 1.84901e-19, cumulative = -2.39912e-18
DICPCG:  Solving for p, Initial residual = 0.0112933, Final residual = 8.24874e-07, No Iterations 108
time step continuity errors : sum local = 2.03258e-09, global = 7.93906e-19, cumulative = -1.60521e-18
ExecutionTime = 0.975229 s  ClockTime = 1 s

Time = 1.89s

Courant Number mean: 0.612171 max: 3.08557
smoothSolver:  Solving for Ux, Initial residual = 0.00224915, Final residual = 8.24758e-06, No Iterations 14
smoothSolver:  Solving for Uy, Initial residual = 0.00408406, Final residual = 6.8355e-06, No Iterations 16
DICPCG:  Solving for p, Initial residual = 0.0128207, Final residual = 0.00053142, No Iterations 67
time step continuity errors : sum local = 1.32035e-06, global = -3.38176e-19, cumulative = -1.94339e-18
DICPCG:  Solving for p, Initial residual = 0.0113513, Final residual = 7.79232e-07, No Iterations 108
time step continuity errors : sum local = 1.92234e-09, global = -3.991e-19, cumulative = -2.34249e-18
ExecutionTime = 0.994513 s  ClockTime = 1 s

Time = 1.935s

Courant Number mean: 0.615461 max: 3.0863
smoothSolver:  Solving for Ux, Initial residual = 0.0022225, Final residual = 8.21289e-06, No Iterations 14
smoothSolver:  Solving for Uy, Initial residual = 0.00383736, Final residual = 9.60809e-06, No Iterations 15
DICPCG:  Solving for p, Initial residual = 0.0116531, Final residual = 0.000452773, No Iterations 33
time step continuity errors : sum local = 1.26865e-06, global = 3.31268e-19, cumulative = -2.01122e-18
DICPCG:  Solving for p, Initial residual = 0.0102815, Final residual = 9.88032e-07, No Iterations 106
time step continuity errors : sum local = 2.43141e-09, global = -5.04798e-20, cumulative = -2.0617e-18
ExecutionTime = 1.01051 s  ClockTime = 1 s

Time = 1.98s

Courant Number mean: 0.618648 max: 3.08696
smoothSolver:  Solving for Ux, Initial residual = 0.0021212, Final residual = 7.81527e-06, No Iterations 14
smoothSolver:  Solving for Uy, Initial residual = 0.00379407, Final residual = 9.48031e-06, No Iterations 15
DICPCG:  Solving for p, Initial residual = 0.0119075, Final residual = 0.000528438, No Iterations 66
time step continuity errors : sum local = 1.30546e-06, global = -6.14235e-19, cumulative = -2.67594e-18
DICPCG:  Solving for p, Initial residual = 0.0105756, Final residual = 9.66552e-07, No Iterations 107
time step continuity errors : sum local = 2.38268e-09, global = 3.28546e-20, cumulative = -2.64308e-18
ExecutionTime = 1.02967 s  ClockTime = 1 s

Time = 2.025s

Courant Number mean: 0.62174 max: 3.0876
smoothSolver:  Solving for Ux, Initial residual = 0.00209165, Final residual = 7.75278e-06, No Iterations 14
smoothSolver:  Solving for Uy, Initial residual = 0.00357312, Final residual = 8.96092e-06, No Iterations 15
DICPCG:  Solving for p, Initial residual = 0.0110404, Final residual = 0.000395047, No Iterations 33
time step continuity errors : sum local = 1.14377e-06, global = 2.60764e-19, cumulative = -2.38232e-18
DICPCG:  Solving for p, Initial residual = 0.00973818, Final residual = 9.24632e-07, No Iterations 106
time step continuity errors : sum local = 2.27827e-09, global = 6.02943e-19, cumulative = -1.77937e-18
ExecutionTime = 1.04585 s  ClockTime = 1 s

Time = 2.07s

Courant Number mean: 0.624736 max: 3.08819
smoothSolver:  Solving for Ux, Initial residual = 0.00200713, Final residual = 7.41779e-06, No Iterations 14
smoothSolver:  Solving for Uy, Initial residual = 0.00355914, Final residual = 8.90327e-06, No Iterations 15
DICPCG:  Solving for p, Initial residual = 0.0111077, Final residual = 0.000531416, No Iterations 66
time step continuity errors : sum local = 1.32117e-06, global = 1.33979e-19, cumulative = -1.64539e-18
DICPCG:  Solving for p, Initial residual = 0.00983254, Final residual = 8.71672e-07, No Iterations 107
time step continuity errors : sum local = 2.1493e-09, global = -3.88047e-19, cumulative = -2.03344e-18
ExecutionTime = 1.0648 s  ClockTime = 1 s

Time = 2.115s

Courant Number mean: 0.627654 max: 3.08876
smoothSolver:  Solving for Ux, Initial residual = 0.00198431, Final residual = 7.38321e-06, No Iterations 14
smoothSolver:  Solving for Uy, Initial residual = 0.00335877, Final residual = 8.43867e-06, No Iterations 15
DICPCG:  Solving for p, Initial residual = 0.0102652, Final residual = 0.000376484, No Iterations 33
time step continuity errors : sum local = 1.0741e-06, global = -1.03325e-18, cumulative = -3.06669e-18
DICPCG:  Solving for p, Initial residual = 0.00903187, Final residual = 8.4804e-07, No Iterations 106
time step continuity errors : sum local = 2.08932e-09, global = -2.02489e-19, cumulative = -3.26918e-18
ExecutionTime = 1.08068 s  ClockTime = 1 s

Time = 2.16s

Courant Number mean: 0.630499 max: 3.08929
smoothSolver:  Solving for Ux, Initial residual = 0.00189947, Final residual = 7.04773e-06, No Iterations 14
smoothSolver:  Solving for Uy, Initial residual = 0.00332408, Final residual = 8.33074e-06, No Iterations 15
DICPCG:  Solving for p, Initial residual = 0.0103827, Final residual = 0.000438254, No Iterations 66
time step continuity errors : sum local = 1.08621e-06, global = 1.34412e-18, cumulative = -1.92506e-18
DICPCG:  Solving for p, Initial residual = 0.00921613, Final residual = 9.38155e-07, No Iterations 106
time step continuity errors : sum local = 2.31102e-09, global = 6.25389e-20, cumulative = -1.86252e-18
ExecutionTime = 1.0992 s  ClockTime = 1 s

Time = 2.205s

Courant Number mean: 0.633268 max: 3.0898
smoothSolver:  Solving for Ux, Initial residual = 0.00187286, Final residual = 6.9861e-06, No Iterations 14
smoothSolver:  Solving for Uy, Initial residual = 0.00314288, Final residual = 7.90555e-06, No Iterations 15
DICPCG:  Solving for p, Initial residual = 0.00963317, Final residual = 0.000349204, No Iterations 33
time step continuity errors : sum local = 1.01277e-06, global = -6.66562e-19, cumulative = -2.52908e-18
DICPCG:  Solving for p, Initial residual = 0.0084973, Final residual = 8.19321e-07, No Iterations 106
time step continuity errors : sum local = 2.02105e-09, global = -9.77531e-20, cumulative = -2.62684e-18
ExecutionTime = 1.11523 s  ClockTime = 1 s

Time = 2.25s

Courant Number mean: 0.635962 max: 3.09027
smoothSolver:  Solving for Ux, Initial residual = 0.00180268, Final residual = 9.9902e-06, No Iterations 13
smoothSolver:  Solving for Uy, Initial residual = 0.00312612, Final residual = 7.84428e-06, No Iterations 15
DICPCG:  Solving for p, Initial residual = 0.00971199, Final residual = 0.000420141, No Iterations 66
time step continuity errors : sum local = 1.04533e-06, global = 8.82302e-19, cumulative = -1.74453e-18
DICPCG:  Solving for p, Initial residual = 0.00858661, Final residual = 7.83229e-07, No Iterations 106
time step continuity errors : sum local = 1.92997e-09, global = -6.6256e-19, cumulative = -2.40709e-18
ExecutionTime = 1.1476 s  ClockTime = 1 s

Time = 2.295s

Courant Number mean: 0.638586 max: 3.09072
smoothSolver:  Solving for Ux, Initial residual = 0.00178123, Final residual = 9.93148e-06, No Iterations 13
smoothSolver:  Solving for Uy, Initial residual = 0.00296292, Final residual = 7.46523e-06, No Iterations 15
DICPCG:  Solving for p, Initial residual = 0.00893355, Final residual = 0.000325327, No Iterations 33
time step continuity errors : sum local = 9.36846e-07, global = -5.39586e-20, cumulative = -2.46105e-18
DICPCG:  Solving for p, Initial residual = 0.00787249, Final residual = 7.41582e-07, No Iterations 106
time step continuity errors : sum local = 1.82981e-09, global = -1.53907e-19, cumulative = -2.61496e-18
ExecutionTime = 1.16982 s  ClockTime = 1 s

Time = 2.34s

Courant Number mean: 0.64114 max: 3.09115
smoothSolver:  Solving for Ux, Initial residual = 0.00170963, Final residual = 9.50241e-06, No Iterations 13
smoothSolver:  Solving for Uy, Initial residual = 0.00293364, Final residual = 7.37333e-06, No Iterations 15
DICPCG:  Solving for p, Initial residual = 0.00912185, Final residual = 0.000382861, No Iterations 66
time step continuity errors : sum local = 9.52274e-07, global = 4.26011e-20, cumulative = -2.57236e-18
DICPCG:  Solving for p, Initial residual = 0.00808938, Final residual = 7.4529e-07, No Iterations 106
time step continuity errors : sum local = 1.83989e-09, global = -1.28991e-18, cumulative = -3.86227e-18
ExecutionTime = 1.18844 s  ClockTime = 1 s

Time = 2.385s

Courant Number mean: 0.643624 max: 3.09156
smoothSolver:  Solving for Ux, Initial residual = 0.00168577, Final residual = 9.4149e-06, No Iterations 13
smoothSolver:  Solving for Uy, Initial residual = 0.00278242, Final residual = 7.01761e-06, No Iterations 15
DICPCG:  Solving for p, Initial residual = 0.00843273, Final residual = 0.000310835, No Iterations 33
time step continuity errors : sum local = 8.98074e-07, global = 1.78939e-19, cumulative = -3.68333e-18
DICPCG:  Solving for p, Initial residual = 0.00744151, Final residual = 7.0626e-07, No Iterations 106
time step continuity errors : sum local = 1.74408e-09, global = -2.16015e-19, cumulative = -3.89934e-18
ExecutionTime = 1.20446 s  ClockTime = 1 s

Time = 2.43s

Courant Number mean: 0.64604 max: 3.09193
smoothSolver:  Solving for Ux, Initial residual = 0.00162651, Final residual = 9.06156e-06, No Iterations 13
smoothSolver:  Solving for Uy, Initial residual = 0.00276408, Final residual = 6.95606e-06, No Iterations 15
DICPCG:  Solving for p, Initial residual = 0.00854784, Final residual = 0.000347028, No Iterations 66
time step continuity errors : sum local = 8.6284e-07, global = 4.28197e-19, cumulative = -3.47114e-18
DICPCG:  Solving for p, Initial residual = 0.0075483, Final residual = 7.79175e-07, No Iterations 106
time step continuity errors : sum local = 1.92585e-09, global = -1.39477e-18, cumulative = -4.86591e-18
ExecutionTime = 1.22287 s  ClockTime = 1 s

Time = 2.475s

Courant Number mean: 0.648393 max: 3.0923
smoothSolver:  Solving for Ux, Initial residual = 0.00160599, Final residual = 8.99772e-06, No Iterations 13
smoothSolver:  Solving for Uy, Initial residual = 0.00262944, Final residual = 9.88973e-06, No Iterations 14
DICPCG:  Solving for p, Initial residual = 0.0078209, Final residual = 0.000286507, No Iterations 33
time step continuity errors : sum local = 8.37131e-07, global = -4.26607e-19, cumulative = -5.29252e-18
DICPCG:  Solving for p, Initial residual = 0.00690383, Final residual = 8.47241e-07, No Iterations 105
time step continuity errors : sum local = 2.09657e-09, global = 8.01776e-19, cumulative = -4.49074e-18
ExecutionTime = 1.23857 s  ClockTime = 1 s

Time = 2.52s

Courant Number mean: 0.650683 max: 3.09266
smoothSolver:  Solving for Ux, Initial residual = 0.00154613, Final residual = 8.63013e-06, No Iterations 13
smoothSolver:  Solving for Uy, Initial residual = 0.00260416, Final residual = 9.77017e-06, No Iterations 14
DICPCG:  Solving for p, Initial residual = 0.00808392, Final residual = 0.000341612, No Iterations 66
time step continuity errors : sum local = 8.51249e-07, global = -9.43585e-19, cumulative = -5.43433e-18
DICPCG:  Solving for p, Initial residual = 0.00716, Final residual = 7.74524e-07, No Iterations 106
time step continuity errors : sum local = 1.91535e-09, global = -5.34176e-19, cumulative = -5.96851e-18
ExecutionTime = 1.25714 s  ClockTime = 1 s

Time = 2.565s

Courant Number mean: 0.652915 max: 3.09298
smoothSolver:  Solving for Ux, Initial residual = 0.00152388, Final residual = 8.54619e-06, No Iterations 13
smoothSolver:  Solving for Uy, Initial residual = 0.00247826, Final residual = 9.32884e-06, No Iterations 14
DICPCG:  Solving for p, Initial residual = 0.00741001, Final residual = 0.00027842, No Iterations 33
time step continuity errors : sum local = 8.08492e-07, global = -5.45018e-19, cumulative = -6.51352e-18
DICPCG:  Solving for p, Initial residual = 0.00654163, Final residual = 8.10662e-07, No Iterations 105
time step continuity errors : sum local = 2.00436e-09, global = 5.42329e-19, cumulative = -5.9712e-18
ExecutionTime = 1.27281 s  ClockTime = 1 s

Time = 2.61s

Courant Number mean: 0.655088 max: 3.09329
smoothSolver:  Solving for Ux, Initial residual = 0.00147335, Final residual = 8.24008e-06, No Iterations 13
smoothSolver:  Solving for Uy, Initial residual = 0.00245791, Final residual = 9.23262e-06, No Iterations 14
DICPCG:  Solving for p, Initial residual = 0.00758858, Final residual = 0.000294548, No Iterations 66
time step continuity errors : sum local = 7.30789e-07, global = -5.48189e-19, cumulative = -6.51939e-18
DICPCG:  Solving for p, Initial residual = 0.00670402, Final residual = 7.40639e-07, No Iterations 106
time step continuity errors : sum local = 1.83248e-09, global = 6.06331e-19, cumulative = -5.91305e-18
ExecutionTime = 1.29114 s  ClockTime = 1 s

Time = 2.655s

Courant Number mean: 0.657204 max: 3.09359
smoothSolver:  Solving for Ux, Initial residual = 0.00145256, Final residual = 8.16736e-06, No Iterations 13
smoothSolver:  Solving for Uy, Initial residual = 0.00234545, Final residual = 8.83993e-06, No Iterations 14
DICPCG:  Solving for p, Initial residual = 0.00693429, Final residual = 0.000346703, No Iterations 32
time step continuity errors : sum local = 9.85131e-07, global = -5.24019e-19, cumulative = -6.43707e-18
DICPCG:  Solving for p, Initial residual = 0.00614694, Final residual = 8.20269e-07, No Iterations 105
time step continuity errors : sum local = 2.03151e-09, global = 7.1126e-19, cumulative = -5.72581e-18
ExecutionTime = 1.30795 s  ClockTime = 1 s

Time = 2.7s

Courant Number mean: 0.659276 max: 3.09388
smoothSolver:  Solving for Ux, Initial residual = 0.00140112, Final residual = 7.84781e-06, No Iterations 13
smoothSolver:  Solving for Uy, Initial residual = 0.00232675, Final residual = 8.74632e-06, No Iterations 14
DICPCG:  Solving for p, Initial residual = 0.00722046, Final residual = 0.000323863, No Iterations 66
time step continuity errors : sum local = 8.03827e-07, global = 7.72812e-20, cumulative = -5.64853e-18
DICPCG:  Solving for p, Initial residual = 0.00640235, Final residual = 7.12197e-07, No Iterations 106
time step continuity errors : sum local = 1.76286e-09, global = 7.1562e-19, cumulative = -4.93291e-18
ExecutionTime = 1.3399 s  ClockTime = 1 s

Time = 2.745s

Courant Number mean: 0.661302 max: 3.09415
smoothSolver:  Solving for Ux, Initial residual = 0.00138261, Final residual = 7.78578e-06, No Iterations 13
smoothSolver:  Solving for Uy, Initial residual = 0.0022186, Final residual = 8.36734e-06, No Iterations 14
DICPCG:  Solving for p, Initial residual = 0.00659387, Final residual = 0.000327528, No Iterations 32
time step continuity errors : sum local = 9.37556e-07, global = 5.48876e-20, cumulative = -4.87802e-18
DICPCG:  Solving for p, Initial residual = 0.00584394, Final residual = 7.77047e-07, No Iterations 105
time step continuity errors : sum local = 1.92611e-09, global = 2.6931e-19, cumulative = -4.60871e-18
ExecutionTime = 1.36184 s  ClockTime = 1 s

Time = 2.79s

Courant Number mean: 0.663279 max: 3.09441
smoothSolver:  Solving for Ux, Initial residual = 0.00133563, Final residual = 7.49102e-06, No Iterations 13
smoothSolver:  Solving for Uy, Initial residual = 0.00220343, Final residual = 8.28787e-06, No Iterations 14
DICPCG:  Solving for p, Initial residual = 0.00685779, Final residual = 0.000336193, No Iterations 65
time step continuity errors : sum local = 8.36514e-07, global = 3.87222e-19, cumulative = -4.22149e-18
DICPCG:  Solving for p, Initial residual = 0.00608609, Final residual = 6.93537e-07, No Iterations 106
time step continuity errors : sum local = 1.71731e-09, global = 1.67921e-19, cumulative = -4.05357e-18
ExecutionTime = 1.38002 s  ClockTime = 1 s

Time = 2.835s

Courant Number mean: 0.665211 max: 3.09466
smoothSolver:  Solving for Ux, Initial residual = 0.001317, Final residual = 7.42489e-06, No Iterations 13
smoothSolver:  Solving for Uy, Initial residual = 0.00210113, Final residual = 7.92792e-06, No Iterations 14
DICPCG:  Solving for p, Initial residual = 0.00630488, Final residual = 0.000306437, No Iterations 32
time step continuity errors : sum local = 8.78619e-07, global = 4.49858e-19, cumulative = -3.60371e-18
DICPCG:  Solving for p, Initial residual = 0.00558256, Final residual = 7.91359e-07, No Iterations 105
time step continuity errors : sum local = 1.96294e-09, global = -3.98525e-19, cumulative = -4.00224e-18
ExecutionTime = 1.39555 s  ClockTime = 1 s

Time = 2.88s

Courant Number mean: 0.667096 max: 3.0949
smoothSolver:  Solving for Ux, Initial residual = 0.0012742, Final residual = 7.15685e-06, No Iterations 13
smoothSolver:  Solving for Uy, Initial residual = 0.00208535, Final residual = 7.85095e-06, No Iterations 14
DICPCG:  Solving for p, Initial residual = 0.00650643, Final residual = 0.000287776, No Iterations 56
time step continuity errors : sum local = 7.25921e-07, global = -3.76996e-19, cumulative = -4.37923e-18
DICPCG:  Solving for p, Initial residual = 0.00572611, Final residual = 6.48485e-07, No Iterations 106
time step continuity errors : sum local = 1.60695e-09, global = 1.32409e-19, cumulative = -4.24682e-18
ExecutionTime = 1.41301 s  ClockTime = 1 s

Time = 2.925s

Courant Number mean: 0.668937 max: 3.09512
smoothSolver:  Solving for Ux, Initial residual = 0.00125869, Final residual = 7.09775e-06, No Iterations 13
smoothSolver:  Solving for Uy, Initial residual = 0.00198848, Final residual = 7.5089e-06, No Iterations 14
DICPCG:  Solving for p, Initial residual = 0.00582028, Final residual = 0.000287981, No Iterations 32
time step continuity errors : sum local = 8.06381e-07, global = 3.19059e-19, cumulative = -3.92777e-18
DICPCG:  Solving for p, Initial residual = 0.00514574, Final residual = 9.11931e-07, No Iterations 104
time step continuity errors : sum local = 2.26126e-09, global = 9.43418e-19, cumulative = -2.98435e-18
ExecutionTime = 1.42889 s  ClockTime = 1 s

Time = 2.97s

Courant Number mean: 0.670733 max: 3.09533
smoothSolver:  Solving for Ux, Initial residual = 0.00121822, Final residual = 6.85567e-06, No Iterations 13
smoothSolver:  Solving for Uy, Initial residual = 0.00196561, Final residual = 7.41106e-06, No Iterations 14
DICPCG:  Solving for p, Initial residual = 0.00611715, Final residual = 0.000290417, No Iterations 66
time step continuity errors : sum local = 7.24866e-07, global = -8.63845e-20, cumulative = -3.07073e-18
DICPCG:  Solving for p, Initial residual = 0.00540303, Final residual = 8.52044e-07, No Iterations 105
time step continuity errors : sum local = 2.11155e-09, global = -1.24743e-19, cumulative = -3.19548e-18
ExecutionTime = 1.44765 s  ClockTime = 1 s

Time = 3.015s

Courant Number mean: 0.67249 max: 3.09554
smoothSolver:  Solving for Ux, Initial residual = 0.00119665, Final residual = 6.76196e-06, No Iterations 13
smoothSolver:  Solving for Uy, Initial residual = 0.0018892, Final residual = 7.14391e-06, No Iterations 14
DICPCG:  Solving for p, Initial residual = 0.00551181, Final residual = 0.000212811, No Iterations 33
time step continuity errors : sum local = 6.22842e-07, global = -2.87875e-19, cumulative = -3.48335e-18
DICPCG:  Solving for p, Initial residual = 0.00488013, Final residual = 6.88888e-07, No Iterations 105
time step continuity errors : sum local = 1.70877e-09, global = -1.07782e-18, cumulative = -4.56117e-18
ExecutionTime = 1.46342 s  ClockTime = 1 s

Time = 3.06s

Courant Number mean: 0.674204 max: 3.09574
smoothSolver:  Solving for Ux, Initial residual = 0.00116054, Final residual = 9.72973e-06, No Iterations 12
smoothSolver:  Solving for Uy, Initial residual = 0.00187026, Final residual = 7.05408e-06, No Iterations 14
DICPCG:  Solving for p, Initial residual = 0.005763, Final residual = 0.000255192, No Iterations 66
time step continuity errors : sum local = 6.3416e-07, global = 7.18347e-20, cumulative = -4.48933e-18
DICPCG:  Solving for p, Initial residual = 0.0050938, Final residual = 9.08509e-07, No Iterations 105
time step continuity errors : sum local = 2.25116e-09, global = 5.1335e-19, cumulative = -3.97598e-18
ExecutionTime = 1.48147 s  ClockTime = 1 s

Time = 3.105s

Courant Number mean: 0.675875 max: 3.09594
smoothSolver:  Solving for Ux, Initial residual = 0.00114176, Final residual = 9.61598e-06, No Iterations 12
smoothSolver:  Solving for Uy, Initial residual = 0.00179434, Final residual = 6.78814e-06, No Iterations 14
DICPCG:  Solving for p, Initial residual = 0.00525278, Final residual = 0.000205196, No Iterations 33
time step continuity errors : sum local = 6.12138e-07, global = -7.77817e-21, cumulative = -3.98376e-18
DICPCG:  Solving for p, Initial residual = 0.00465902, Final residual = 9.26107e-07, No Iterations 104
time step continuity errors : sum local = 2.29782e-09, global = -7.39996e-19, cumulative = -4.72376e-18
ExecutionTime = 1.49711 s  ClockTime = 1 s

Time = 3.15s

Courant Number mean: 0.677507 max: 3.09612
smoothSolver:  Solving for Ux, Initial residual = 0.00110555, Final residual = 9.27258e-06, No Iterations 12
smoothSolver:  Solving for Uy, Initial residual = 0.00178241, Final residual = 6.7213e-06, No Iterations 14
DICPCG:  Solving for p, Initial residual = 0.00551162, Final residual = 0.000255175, No Iterations 66
time step continuity errors : sum local = 6.33436e-07, global = 6.54817e-19, cumulative = -4.06894e-18
DICPCG:  Solving for p, Initial residual = 0.00487464, Final residual = 8.94954e-07, No Iterations 105
time step continuity errors : sum local = 2.21894e-09, global = 6.99694e-19, cumulative = -3.36924e-18
ExecutionTime = 1.52915 s  ClockTime = 1 s

Time = 3.195s

Courant Number mean: 0.679102 max: 3.0963
smoothSolver:  Solving for Ux, Initial residual = 0.00109005, Final residual = 9.18755e-06, No Iterations 12
smoothSolver:  Solving for Uy, Initial residual = 0.00170563, Final residual = 9.60587e-06, No Iterations 13
DICPCG:  Solving for p, Initial residual = 0.0049999, Final residual = 0.000204181, No Iterations 33
time step continuity errors : sum local = 6.16563e-07, global = -6.27338e-19, cumulative = -3.99658e-18
DICPCG:  Solving for p, Initial residual = 0.00443982, Final residual = 8.40826e-07, No Iterations 104
time step continuity errors : sum local = 2.08713e-09, global = 2.12877e-19, cumulative = -3.78371e-18
ExecutionTime = 1.55083 s  ClockTime = 1 s

Time = 3.24s

Courant Number mean: 0.680656 max: 3.09647
smoothSolver:  Solving for Ux, Initial residual = 0.00105543, Final residual = 8.85279e-06, No Iterations 12
smoothSolver:  Solving for Uy, Initial residual = 0.00169612, Final residual = 9.52065e-06, No Iterations 13
DICPCG:  Solving for p, Initial residual = 0.00527955, Final residual = 0.000248734, No Iterations 66
time step continuity errors : sum local = 6.174e-07, global = 6.27621e-19, cumulative = -3.15608e-18
DICPCG:  Solving for p, Initial residual = 0.00467268, Final residual = 8.68412e-07, No Iterations 105
time step continuity errors : sum local = 2.15419e-09, global = 1.58631e-19, cumulative = -2.99745e-18
ExecutionTime = 1.56929 s  ClockTime = 1 s

Time = 3.285s

Courant Number mean: 0.682172 max: 3.09663
smoothSolver:  Solving for Ux, Initial residual = 0.00104071, Final residual = 8.77588e-06, No Iterations 12
smoothSolver:  Solving for Uy, Initial residual = 0.00162182, Final residual = 9.13678e-06, No Iterations 13
DICPCG:  Solving for p, Initial residual = 0.00476937, Final residual = 0.000206601, No Iterations 33
time step continuity errors : sum local = 6.24406e-07, global = 6.82345e-19, cumulative = -2.31511e-18
DICPCG:  Solving for p, Initial residual = 0.00423797, Final residual = 8.16524e-07, No Iterations 104
time step continuity errors : sum local = 2.02799e-09, global = 3.98235e-19, cumulative = -1.91687e-18
ExecutionTime = 1.5846 s  ClockTime = 1 s

Time = 3.33s

Courant Number mean: 0.683651 max: 3.09679
smoothSolver:  Solving for Ux, Initial residual = 0.00100738, Final residual = 8.4521e-06, No Iterations 12
smoothSolver:  Solving for Uy, Initial residual = 0.00161458, Final residual = 9.06304e-06, No Iterations 13
DICPCG:  Solving for p, Initial residual = 0.00505293, Final residual = 0.000240173, No Iterations 66
time step continuity errors : sum local = 5.96359e-07, global = -9.47492e-20, cumulative = -2.01162e-18
DICPCG:  Solving for p, Initial residual = 0.00447261, Final residual = 8.29103e-07, No Iterations 105
time step continuity errors : sum local = 2.05776e-09, global = -1.06688e-18, cumulative = -3.07851e-18
ExecutionTime = 1.60261 s  ClockTime = 1 s

Time = 3.375s

Courant Number mean: 0.685097 max: 3.09694
smoothSolver:  Solving for Ux, Initial residual = 0.000993685, Final residual = 8.38376e-06, No Iterations 12
smoothSolver:  Solving for Uy, Initial residual = 0.00154314, Final residual = 8.69545e-06, No Iterations 13
DICPCG:  Solving for p, Initial residual = 0.00455027, Final residual = 0.000201092, No Iterations 33
time step continuity errors : sum local = 6.09675e-07, global = -4.65105e-19, cumulative = -3.54361e-18
DICPCG:  Solving for p, Initial residual = 0.00404428, Final residual = 9.9148e-07, No Iterations 103
time step continuity errors : sum local = 2.46146e-09, global = -7.71777e-19, cumulative = -4.31539e-18
ExecutionTime = 1.61828 s  ClockTime = 1 s

Time = 3.42s

Courant Number mean: 0.686511 max: 3.09709
smoothSolver:  Solving for Ux, Initial residual = 0.000961664, Final residual = 8.0721e-06, No Iterations 12
smoothSolver:  Solving for Uy, Initial residual = 0.00153679, Final residual = 8.62714e-06, No Iterations 13
DICPCG:  Solving for p, Initial residual = 0.00482561, Final residual = 0.000230462, No Iterations 66
time step continuity errors : sum local = 5.72595e-07, global = -1.24308e-18, cumulative = -5.55847e-18
DICPCG:  Solving for p, Initial residual = 0.00427483, Final residual = 9.7582e-07, No Iterations 104
time step continuity errors : sum local = 2.42295e-09, global = 4.42131e-19, cumulative = -5.11634e-18
ExecutionTime = 1.63644 s  ClockTime = 1 s

Time = 3.465s

Courant Number mean: 0.687891 max: 3.09722
smoothSolver:  Solving for Ux, Initial residual = 0.000948681, Final residual = 8.00829e-06, No Iterations 12
smoothSolver:  Solving for Uy, Initial residual = 0.00146906, Final residual = 8.27938e-06, No Iterations 13
DICPCG:  Solving for p, Initial residual = 0.00434079, Final residual = 0.000198414, No Iterations 33
time step continuity errors : sum local = 6.00952e-07, global = -4.07465e-19, cumulative = -5.5238e-18
DICPCG:  Solving for p, Initial residual = 0.00385995, Final residual = 9.3745e-07, No Iterations 103
time step continuity errors : sum local = 2.32851e-09, global = -2.49831e-19, cumulative = -5.77363e-18
ExecutionTime = 1.65171 s  ClockTime = 1 s

Time = 3.51s

Courant Number mean: 0.689241 max: 3.09738
smoothSolver:  Solving for Ux, Initial residual = 0.000918045, Final residual = 7.70971e-06, No Iterations 12
smoothSolver:  Solving for Uy, Initial residual = 0.00146322, Final residual = 8.2144e-06, No Iterations 13
DICPCG:  Solving for p, Initial residual = 0.00460513, Final residual = 0.000217624, No Iterations 66
time step continuity errors : sum local = 5.40818e-07, global = -1.39983e-19, cumulative = -5.91362e-18
DICPCG:  Solving for p, Initial residual = 0.00408005, Final residual = 9.29817e-07, No Iterations 104
time step continuity errors : sum local = 2.30989e-09, global = 2.27808e-19, cumulative = -5.68581e-18
ExecutionTime = 1.66967 s  ClockTime = 1 s

Time = 3.555s

Courant Number mean: 0.690563 max: 3.09751
smoothSolver:  Solving for Ux, Initial residual = 0.000905692, Final residual = 7.64981e-06, No Iterations 12
smoothSolver:  Solving for Uy, Initial residual = 0.00139903, Final residual = 7.88608e-06, No Iterations 13
DICPCG:  Solving for p, Initial residual = 0.00414093, Final residual = 0.000192634, No Iterations 33
time step continuity errors : sum local = 5.83392e-07, global = 6.33889e-19, cumulative = -5.05192e-18
DICPCG:  Solving for p, Initial residual = 0.00368275, Final residual = 9.89808e-07, No Iterations 102
time step continuity errors : sum local = 2.46107e-09, global = 8.78664e-19, cumulative = -4.17326e-18
ExecutionTime = 1.68488 s  ClockTime = 1 s

Time = 3.6s

Courant Number mean: 0.691856 max: 3.09766
smoothSolver:  Solving for Ux, Initial residual = 0.000876553, Final residual = 7.36528e-06, No Iterations 12
smoothSolver:  Solving for Uy, Initial residual = 0.00139337, Final residual = 7.82212e-06, No Iterations 13
DICPCG:  Solving for p, Initial residual = 0.00439092, Final residual = 0.000204625, No Iterations 66
time step continuity errors : sum local = 5.08753e-07, global = 5.00023e-19, cumulative = -3.67323e-18
DICPCG:  Solving for p, Initial residual = 0.00389284, Final residual = 8.82011e-07, No Iterations 104
time step continuity errors : sum local = 2.19198e-09, global = 1.77353e-19, cumulative = -3.49588e-18
ExecutionTime = 1.71661 s  ClockTime = 1 s

Time = 3.645s

Courant Number mean: 0.69312 max: 3.09778
smoothSolver:  Solving for Ux, Initial residual = 0.000864732, Final residual = 7.30738e-06, No Iterations 12
smoothSolver:  Solving for Uy, Initial residual = 0.00133281, Final residual = 7.51376e-06, No Iterations 13
DICPCG:  Solving for p, Initial residual = 0.00394851, Final residual = 0.000187754, No Iterations 33
time step continuity errors : sum local = 5.67626e-07, global = -2.15156e-19, cumulative = -3.71104e-18
DICPCG:  Solving for p, Initial residual = 0.0035131, Final residual = 9.8992e-07, No Iterations 101
time step continuity errors : sum local = 2.46354e-09, global = -8.59664e-19, cumulative = -4.5707e-18
ExecutionTime = 1.73821 s  ClockTime = 2 s

Time = 3.69s

Courant Number mean: 0.694355 max: 3.09792
smoothSolver:  Solving for Ux, Initial residual = 0.00083711, Final residual = 7.03667e-06, No Iterations 12
smoothSolver:  Solving for Uy, Initial residual = 0.00132702, Final residual = 7.45e-06, No Iterations 13
DICPCG:  Solving for p, Initial residual = 0.00418676, Final residual = 0.000192686, No Iterations 66
time step continuity errors : sum local = 4.79378e-07, global = 3.65394e-19, cumulative = -4.20531e-18
DICPCG:  Solving for p, Initial residual = 0.00371179, Final residual = 9.53414e-07, No Iterations 103
time step continuity errors : sum local = 2.37044e-09, global = -4.23655e-19, cumulative = -4.62896e-18
ExecutionTime = 1.75583 s  ClockTime = 2 s

Time = 3.735s

Courant Number mean: 0.695564 max: 3.09804
smoothSolver:  Solving for Ux, Initial residual = 0.000825731, Final residual = 6.98028e-06, No Iterations 12
smoothSolver:  Solving for Uy, Initial residual = 0.00127, Final residual = 7.16056e-06, No Iterations 13
DICPCG:  Solving for p, Initial residual = 0.00376603, Final residual = 0.000182887, No Iterations 33
time step continuity errors : sum local = 5.51628e-07, global = -5.22446e-19, cumulative = -5.15141e-18
DICPCG:  Solving for p, Initial residual = 0.0033508, Final residual = 9.31367e-07, No Iterations 101
time step continuity errors : sum local = 2.31894e-09, global = 3.61386e-19, cumulative = -4.79002e-18
ExecutionTime = 1.77099 s  ClockTime = 2 s

Time = 3.78s

Courant Number mean: 0.696746 max: 3.09816
smoothSolver:  Solving for Ux, Initial residual = 0.000799527, Final residual = 6.72303e-06, No Iterations 12
smoothSolver:  Solving for Uy, Initial residual = 0.00126401, Final residual = 7.09676e-06, No Iterations 13
DICPCG:  Solving for p, Initial residual = 0.00399159, Final residual = 0.000181008, No Iterations 66
time step continuity errors : sum local = 4.50601e-07, global = 5.95719e-19, cumulative = -4.1943e-18
DICPCG:  Solving for p, Initial residual = 0.00353925, Final residual = 9.90104e-07, No Iterations 102
time step continuity errors : sum local = 2.46233e-09, global = 1.08686e-19, cumulative = -4.08562e-18
ExecutionTime = 1.78925 s  ClockTime = 2 s

Time = 3.825s

Courant Number mean: 0.697901 max: 3.09828
smoothSolver:  Solving for Ux, Initial residual = 0.000788517, Final residual = 9.92082e-06, No Iterations 11
smoothSolver:  Solving for Uy, Initial residual = 0.0012105, Final residual = 6.82512e-06, No Iterations 13
DICPCG:  Solving for p, Initial residual = 0.00357927, Final residual = 0.000164086, No Iterations 33
time step continuity errors : sum local = 4.97691e-07, global = -1.14417e-18, cumulative = -5.22979e-18
DICPCG:  Solving for p, Initial residual = 0.00318143, Final residual = 9.1062e-07, No Iterations 101
time step continuity errors : sum local = 2.26824e-09, global = -6.87162e-19, cumulative = -5.91695e-18
ExecutionTime = 1.80438 s  ClockTime = 2 s

Time = 3.87s

Courant Number mean: 0.699029 max: 3.09839
smoothSolver:  Solving for Ux, Initial residual = 0.000762876, Final residual = 9.55229e-06, No Iterations 11
smoothSolver:  Solving for Uy, Initial residual = 0.00120533, Final residual = 6.76773e-06, No Iterations 13
DICPCG:  Solving for p, Initial residual = 0.00376714, Final residual = 0.000177514, No Iterations 66
time step continuity errors : sum local = 4.41896e-07, global = 1.25129e-19, cumulative = -5.79182e-18
DICPCG:  Solving for p, Initial residual = 0.00334195, Final residual = 9.62029e-07, No Iterations 102
time step continuity errors : sum local = 2.39353e-09, global = 7.4865e-20, cumulative = -5.71696e-18
ExecutionTime = 1.82201 s  ClockTime = 2 s

Time = 3.915s

Courant Number mean: 0.700132 max: 3.0985
smoothSolver:  Solving for Ux, Initial residual = 0.000752837, Final residual = 9.47665e-06, No Iterations 11
smoothSolver:  Solving for Uy, Initial residual = 0.00115446, Final residual = 9.68889e-06, No Iterations 12
DICPCG:  Solving for p, Initial residual = 0.00340796, Final residual = 0.000165549, No Iterations 33
time step continuity errors : sum local = 5.01424e-07, global = -5.03114e-19, cumulative = -6.22007e-18
DICPCG:  Solving for p, Initial residual = 0.00303215, Final residual = 8.28222e-07, No Iterations 101
time step continuity errors : sum local = 2.06402e-09, global = -9.98492e-20, cumulative = -6.31992e-18
ExecutionTime = 1.83677 s  ClockTime = 2 s

Time = 3.96s

Courant Number mean: 0.701209 max: 3.09861
smoothSolver:  Solving for Ux, Initial residual = 0.00072896, Final residual = 9.12751e-06, No Iterations 11
smoothSolver:  Solving for Uy, Initial residual = 0.00114914, Final residual = 9.6041e-06, No Iterations 12
DICPCG:  Solving for p, Initial residual = 0.00360179, Final residual = 0.00016661, No Iterations 66
time step continuity errors : sum local = 4.15282e-07, global = -6.67545e-20, cumulative = -6.38667e-18
DICPCG:  Solving for p, Initial residual = 0.00319195, Final residual = 9.05096e-07, No Iterations 102
time step continuity errors : sum local = 2.25272e-09, global = 4.9871e-19, cumulative = -5.88797e-18
ExecutionTime = 1.85457 s  ClockTime = 2 s

Time = 4.005s

Courant Number mean: 0.702263 max: 3.09871
smoothSolver:  Solving for Ux, Initial residual = 0.000719145, Final residual = 9.05321e-06, No Iterations 11
smoothSolver:  Solving for Uy, Initial residual = 0.00110061, Final residual = 9.2374e-06, No Iterations 12
DICPCG:  Solving for p, Initial residual = 0.00324529, Final residual = 0.000161436, No Iterations 33
time step continuity errors : sum local = 4.85762e-07, global = 3.07826e-19, cumulative = -5.58014e-18
DICPCG:  Solving for p, Initial residual = 0.00288521, Final residual = 7.77764e-07, No Iterations 101
time step continuity errors : sum local = 1.93914e-09, global = -4.70315e-19, cumulative = -6.05045e-18
ExecutionTime = 1.86944 s  ClockTime = 2 s

Time = 4.05s

Courant Number mean: 0.703292 max: 3.09881
smoothSolver:  Solving for Ux, Initial residual = 0.000696553, Final residual = 8.72528e-06, No Iterations 11
smoothSolver:  Solving for Uy, Initial residual = 0.00109448, Final residual = 9.14913e-06, No Iterations 12
DICPCG:  Solving for p, Initial residual = 0.00342818, Final residual = 0.000159509, No Iterations 66
time step continuity errors : sum local = 3.97604e-07, global = 1.07972e-18, cumulative = -4.97074e-18
DICPCG:  Solving for p, Initial residual = 0.00303871, Final residual = 8.62128e-07, No Iterations 102
time step continuity errors : sum local = 2.14643e-09, global = 1.36791e-18, cumulative = -3.60283e-18
ExecutionTime = 1.90085 s  ClockTime = 2 s

Time = 4.095s

Courant Number mean: 0.704299 max: 3.0989
smoothSolver:  Solving for Ux, Initial residual = 0.000686652, Final residual = 8.64643e-06, No Iterations 11
smoothSolver:  Solving for Uy, Initial residual = 0.00104977, Final residual = 8.81105e-06, No Iterations 12
DICPCG:  Solving for p, Initial residual = 0.00310092, Final residual = 0.000144116, No Iterations 34
time step continuity errors : sum local = 4.38384e-07, global = 1.2489e-18, cumulative = -2.35393e-18
DICPCG:  Solving for p, Initial residual = 0.00275056, Final residual = 7.56962e-07, No Iterations 101
time step continuity errors : sum local = 1.88777e-09, global = 2.66224e-20, cumulative = -2.3273e-18
ExecutionTime = 1.92252 s  ClockTime = 2 s

Time = 4.14s

Courant Number mean: 0.705283 max: 3.099
smoothSolver:  Solving for Ux, Initial residual = 0.000664957, Final residual = 8.33024e-06, No Iterations 11
smoothSolver:  Solving for Uy, Initial residual = 0.00104445, Final residual = 8.72915e-06, No Iterations 12
DICPCG:  Solving for p, Initial residual = 0.00324567, Final residual = 0.000160894, No Iterations 66
time step continuity errors : sum local = 4.01119e-07, global = -3.78532e-19, cumulative = -2.70584e-18
DICPCG:  Solving for p, Initial residual = 0.00288571, Final residual = 8.50173e-07, No Iterations 102
time step continuity errors : sum local = 2.11755e-09, global = 6.86546e-19, cumulative = -2.01929e-18
ExecutionTime = 1.9403 s  ClockTime = 2 s

Time = 4.185s

Courant Number mean: 0.706244 max: 3.09909
smoothSolver:  Solving for Ux, Initial residual = 0.000655468, Final residual = 8.25542e-06, No Iterations 11
smoothSolver:  Solving for Uy, Initial residual = 0.0010019, Final residual = 8.40735e-06, No Iterations 12
DICPCG:  Solving for p, Initial residual = 0.00297172, Final residual = 0.000139593, No Iterations 34
time step continuity errors : sum local = 4.25953e-07, global = 2.51176e-19, cumulative = -1.76812e-18
DICPCG:  Solving for p, Initial residual = 0.00263558, Final residual = 9.63097e-07, No Iterations 100
time step continuity errors : sum local = 2.40258e-09, global = 6.16761e-19, cumulative = -1.15135e-18
ExecutionTime = 1.95603 s  ClockTime = 2 s

Time = 4.23s

Courant Number mean: 0.707182 max: 3.09918
smoothSolver:  Solving for Ux, Initial residual = 0.000634811, Final residual = 7.95278e-06, No Iterations 11
smoothSolver:  Solving for Uy, Initial residual = 0.000997029, Final residual = 8.33061e-06, No Iterations 12
DICPCG:  Solving for p, Initial residual = 0.00310417, Final residual = 0.000118635, No Iterations 67
time step continuity errors : sum local = 2.95594e-07, global = 5.05654e-19, cumulative = -6.457e-19
DICPCG:  Solving for p, Initial residual = 0.00275181, Final residual = 9.98897e-07, No Iterations 101
time step continuity errors : sum local = 2.48953e-09, global = -2.23013e-19, cumulative = -8.68713e-19
ExecutionTime = 1.97442 s  ClockTime = 2 s

Time = 4.275s

Courant Number mean: 0.708099 max: 3.09926
smoothSolver:  Solving for Ux, Initial residual = 0.000625793, Final residual = 7.88235e-06, No Iterations 11
smoothSolver:  Solving for Uy, Initial residual = 0.000955867, Final residual = 8.01934e-06, No Iterations 12
DICPCG:  Solving for p, Initial residual = 0.00280693, Final residual = 0.000137014, No Iterations 34
time step continuity errors : sum local = 4.16705e-07, global = -6.13556e-20, cumulative = -9.30069e-19
DICPCG:  Solving for p, Initial residual = 0.00249189, Final residual = 9.08295e-07, No Iterations 100
time step continuity errors : sum local = 2.26669e-09, global = 2.42867e-19, cumulative = -6.87202e-19
ExecutionTime = 1.99056 s  ClockTime = 2 s

Time = 4.32s

Courant Number mean: 0.708996 max: 3.09935
smoothSolver:  Solving for Ux, Initial residual = 0.000606174, Final residual = 7.59468e-06, No Iterations 11
smoothSolver:  Solving for Uy, Initial residual = 0.000951393, Final residual = 7.94783e-06, No Iterations 12
DICPCG:  Solving for p, Initial residual = 0.00296247, Final residual = 0.000120738, No Iterations 67
time step continuity errors : sum local = 3.01051e-07, global = -1.26234e-19, cumulative = -8.13436e-19
DICPCG:  Solving for p, Initial residual = 0.00262748, Final residual = 9.65098e-07, No Iterations 101
time step continuity errors : sum local = 2.40629e-09, global = 1.04834e-19, cumulative = -7.08603e-19
ExecutionTime = 2.00975 s  ClockTime = 2 s

Time = 4.365s

Courant Number mean: 0.709873 max: 3.09943
smoothSolver:  Solving for Ux, Initial residual = 0.000597492, Final residual = 7.52684e-06, No Iterations 11
smoothSolver:  Solving for Uy, Initial residual = 0.000912169, Final residual = 7.65164e-06, No Iterations 12
DICPCG:  Solving for p, Initial residual = 0.00268757, Final residual = 0.000133198, No Iterations 34
time step continuity errors : sum local = 4.05805e-07, global = -8.49199e-19, cumulative = -1.5578e-18
DICPCG:  Solving for p, Initial residual = 0.00238593, Final residual = 8.71939e-07, No Iterations 100
time step continuity errors : sum local = 2.17658e-09, global = 6.17567e-19, cumulative = -9.40235e-19
ExecutionTime = 2.02598 s  ClockTime = 2 s

Time = 4.41s

Courant Number mean: 0.710731 max: 3.09951
smoothSolver:  Solving for Ux, Initial residual = 0.000578752, Final residual = 7.25096e-06, No Iterations 11
smoothSolver:  Solving for Uy, Initial residual = 0.000908169, Final residual = 7.58485e-06, No Iterations 12
DICPCG:  Solving for p, Initial residual = 0.00283415, Final residual = 0.000116242, No Iterations 67
time step continuity errors : sum local = 2.89893e-07, global = -6.87341e-19, cumulative = -1.62758e-18
DICPCG:  Solving for p, Initial residual = 0.00251315, Final residual = 9.29184e-07, No Iterations 101
time step continuity errors : sum local = 2.31734e-09, global = 5.07783e-19, cumulative = -1.11979e-18
ExecutionTime = 2.04549 s  ClockTime = 2 s

Time = 4.455s

Courant Number mean: 0.71157 max: 3.09958
smoothSolver:  Solving for Ux, Initial residual = 0.000570654, Final residual = 7.18933e-06, No Iterations 11
smoothSolver:  Solving for Uy, Initial residual = 0.000870158, Final residual = 7.29826e-06, No Iterations 12
DICPCG:  Solving for p, Initial residual = 0.00256643, Final residual = 0.000125991, No Iterations 77
time step continuity errors : sum local = 3.14536e-07, global = -1.01101e-19, cumulative = -1.2209e-18
DICPCG:  Solving for p, Initial residual = 0.00226385, Final residual = 8.5364e-07, No Iterations 100
time step continuity errors : sum local = 2.1314e-09, global = -5.42356e-20, cumulative = -1.27513e-18
ExecutionTime = 2.0655 s  ClockTime = 2 s

Time = 4.5s

Courant Number mean: 0.712389 max: 3.09966
smoothSolver:  Solving for Ux, Initial residual = 0.000556539, Final residual = 7.01774e-06, No Iterations 11
smoothSolver:  Solving for Uy, Initial residual = 0.000846215, Final residual = 7.11065e-06, No Iterations 12
DICPCG:  Solving for p, Initial residual = 0.002416, Final residual = 0.00011494, No Iterations 29
time step continuity errors : sum local = 3.19104e-07, global = 1.00014e-19, cumulative = -1.17512e-18
DICPCG:  Solving for p, Initial residual = 0.00215102, Final residual = 9.06972e-07, No Iterations 97
time step continuity errors : sum local = 2.264e-09, global = -3.46308e-19, cumulative = -1.52142e-18
ExecutionTime = 2.09676 s  ClockTime = 2 s

Time = 4.545s

Courant Number mean: 0.71319 max: 3.09973
smoothSolver:  Solving for Ux, Initial residual = 0.000543367, Final residual = 6.83965e-06, No Iterations 11
smoothSolver:  Solving for Uy, Initial residual = 0.000833105, Final residual = 6.98663e-06, No Iterations 12
DICPCG:  Solving for p, Initial residual = 0.00244335, Final residual = 0.00011576, No Iterations 66
time step continuity errors : sum local = 2.88625e-07, global = 1.00665e-18, cumulative = -5.14779e-19
DICPCG:  Solving for p, Initial residual = 0.00216251, Final residual = 8.50209e-07, No Iterations 97
time step continuity errors : sum local = 2.12013e-09, global = 6.54532e-19, cumulative = 1.39754e-19
ExecutionTime = 2.12293 s  ClockTime = 2 s

Time = 4.59s

Courant Number mean: 0.713973 max: 3.0998
smoothSolver:  Solving for Ux, Initial residual = 0.000532967, Final residual = 6.72512e-06, No Iterations 11
smoothSolver:  Solving for Uy, Initial residual = 0.000809664, Final residual = 6.80241e-06, No Iterations 12
DICPCG:  Solving for p, Initial residual = 0.00231316, Final residual = 0.000107025, No Iterations 33
time step continuity errors : sum local = 3.26185e-07, global = -1.26005e-19, cumulative = 1.37489e-20
DICPCG:  Solving for p, Initial residual = 0.00207036, Final residual = 8.70361e-07, No Iterations 100
time step continuity errors : sum local = 2.17478e-09, global = 7.11554e-19, cumulative = 7.25303e-19
ExecutionTime = 2.13939 s  ClockTime = 2 s

Time = 4.635s

Courant Number mean: 0.714739 max: 3.09988
smoothSolver:  Solving for Ux, Initial residual = 0.00051614, Final residual = 9.63598e-06, No Iterations 10
smoothSolver:  Solving for Uy, Initial residual = 0.000803833, Final residual = 6.71938e-06, No Iterations 12
DICPCG:  Solving for p, Initial residual = 0.00249515, Final residual = 0.000118415, No Iterations 67
time step continuity errors : sum local = 2.95999e-07, global = 9.98694e-19, cumulative = 1.724e-18
DICPCG:  Solving for p, Initial residual = 0.00222028, Final residual = 7.96368e-07, No Iterations 101
time step continuity errors : sum local = 1.98722e-09, global = 1.92464e-19, cumulative = 1.91646e-18
ExecutionTime = 2.15887 s  ClockTime = 2 s

Time = 4.68s

Courant Number mean: 0.715486 max: 3.09994
smoothSolver:  Solving for Ux, Initial residual = 0.000507414, Final residual = 9.51809e-06, No Iterations 10
smoothSolver:  Solving for Uy, Initial residual = 0.000775994, Final residual = 9.68802e-06, No Iterations 11
DICPCG:  Solving for p, Initial residual = 0.00229249, Final residual = 0.000112089, No Iterations 33
time step continuity errors : sum local = 3.47352e-07, global = 7.03297e-19, cumulative = 2.61976e-18
DICPCG:  Solving for p, Initial residual = 0.00204361, Final residual = 8.02413e-07, No Iterations 100
time step continuity errors : sum local = 2.00528e-09, global = -1.14291e-19, cumulative = 2.50547e-18
ExecutionTime = 2.17533 s  ClockTime = 2 s

Time = 4.725s

Courant Number mean: 0.716215 max: 3.10001
smoothSolver:  Solving for Ux, Initial residual = 0.000491428, Final residual = 9.16586e-06, No Iterations 10
smoothSolver:  Solving for Uy, Initial residual = 0.000772734, Final residual = 9.6036e-06, No Iterations 11
DICPCG:  Solving for p, Initial residual = 0.00240741, Final residual = 9.47071e-05, No Iterations 67
time step continuity errors : sum local = 2.36576e-07, global = -3.13523e-19, cumulative = 2.19194e-18
DICPCG:  Solving for p, Initial residual = 0.00212916, Final residual = 8.07367e-07, No Iterations 101
time step continuity errors : sum local = 2.01524e-09, global = -1.15602e-18, cumulative = 1.03592e-18
ExecutionTime = 2.19454 s  ClockTime = 2 s

Time = 4.77s

Courant Number mean: 0.716926 max: 3.10007
smoothSolver:  Solving for Ux, Initial residual = 0.000486259, Final residual = 9.11856e-06, No Iterations 10
smoothSolver:  Solving for Uy, Initial residual = 0.000737405, Final residual = 9.20393e-06, No Iterations 11
DICPCG:  Solving for p, Initial residual = 0.00213863, Final residual = 9.60907e-05, No Iterations 77
time step continuity errors : sum local = 2.39947e-07, global = -2.67944e-19, cumulative = 7.67978e-19
DICPCG:  Solving for p, Initial residual = 0.00188431, Final residual = 7.42626e-07, No Iterations 100
time step continuity errors : sum local = 1.85603e-09, global = 1.19305e-18, cumulative = 1.96103e-18
ExecutionTime = 2.21451 s  ClockTime = 2 s

Time = 4.815s

Courant Number mean: 0.717622 max: 3.10013
smoothSolver:  Solving for Ux, Initial residual = 0.000473686, Final residual = 8.89065e-06, No Iterations 10
smoothSolver:  Solving for Uy, Initial residual = 0.000718087, Final residual = 8.97965e-06, No Iterations 11
DICPCG:  Solving for p, Initial residual = 0.00202195, Final residual = 9.75142e-05, No Iterations 29
time step continuity errors : sum local = 2.70111e-07, global = -3.10774e-19, cumulative = 1.65026e-18
DICPCG:  Solving for p, Initial residual = 0.00179841, Final residual = 9.38169e-07, No Iterations 96
time step continuity errors : sum local = 2.34378e-09, global = -4.86054e-19, cumulative = 1.1642e-18
ExecutionTime = 2.23 s  ClockTime = 2 s

Time = 4.86s

Courant Number mean: 0.718301 max: 3.10019
smoothSolver:  Solving for Ux, Initial residual = 0.000462705, Final residual = 8.67035e-06, No Iterations 10
smoothSolver:  Solving for Uy, Initial residual = 0.000706396, Final residual = 8.8174e-06, No Iterations 11
DICPCG:  Solving for p, Initial residual = 0.00204962, Final residual = 9.37729e-05, No Iterations 66
time step continuity errors : sum local = 2.34024e-07, global = -7.84343e-19, cumulative = 3.79859e-19
DICPCG:  Solving for p, Initial residual = 0.00181172, Final residual = 9.3201e-07, No Iterations 96
time step continuity errors : sum local = 2.32643e-09, global = -6.68626e-19, cumulative = -2.88767e-19
ExecutionTime = 2.24867 s  ClockTime = 2 s

Time = 4.905s

Courant Number mean: 0.718965 max: 3.10025
smoothSolver:  Solving for Ux, Initial residual = 0.000453476, Final residual = 8.5164e-06, No Iterations 10
[...]
DICPCG:  Solving for p, Initial residual = 1.09073e-06, Final residual = 9.31724e-07, No Iterations 1
time step continuity errors : sum local = 2.55241e-09, global = -3.13919e-19, cumulative = 3.48629e-17
ExecutionTime = 9.51774 s  ClockTime = 9 s

Time = 48.825s

Courant Number mean: 0.747533 max: 3.10255
smoothSolver:  Solving for Ux, Initial residual = 2.64953e-07, Final residual = 2.64953e-07, No Iterations 0
smoothSolver:  Solving for Uy, Initial residual = 3.95571e-07, Final residual = 3.95571e-07, No Iterations 0
DICPCG:  Solving for p, Initial residual = 1.07343e-06, Final residual = 9.67374e-07, No Iterations 1
time step continuity errors : sum local = 2.64322e-09, global = -8.46598e-19, cumulative = 3.40163e-17
DICPCG:  Solving for p, Initial residual = 1.13137e-06, Final residual = 9.58426e-07, No Iterations 1
time step continuity errors : sum local = 2.62243e-09, global = 3.09229e-19, cumulative = 3.43255e-17
ExecutionTime = 9.5198 s  ClockTime = 9 s

Time = 48.87s

Courant Number mean: 0.747533 max: 3.10255
smoothSolver:  Solving for Ux, Initial residual = 2.61499e-07, Final residual = 2.61499e-07, No Iterations 0
smoothSolver:  Solving for Uy, Initial residual = 3.98761e-07, Final residual = 3.98761e-07, No Iterations 0
DICPCG:  Solving for p, Initial residual = 1.11687e-06, Final residual = 9.99043e-07, No Iterations 1
time step continuity errors : sum local = 2.72584e-09, global = 2.32134e-19, cumulative = 3.45577e-17
DICPCG:  Solving for p, Initial residual = 1.16092e-06, Final residual = 9.96664e-07, No Iterations 1
time step continuity errors : sum local = 2.72164e-09, global = -7.24984e-19, cumulative = 3.38327e-17
ExecutionTime = 9.5219 s  ClockTime = 9 s

Time = 48.915s

Courant Number mean: 0.747533 max: 3.10255
smoothSolver:  Solving for Ux, Initial residual = 2.57825e-07, Final residual = 2.57825e-07, No Iterations 0
smoothSolver:  Solving for Uy, Initial residual = 4.01436e-07, Final residual = 4.01436e-07, No Iterations 0
DICPCG:  Solving for p, Initial residual = 1.16837e-06, Final residual = 9.18235e-07, No Iterations 3
time step continuity errors : sum local = 2.58948e-09, global = -8.97542e-19, cumulative = 3.29351e-17
DICPCG:  Solving for p, Initial residual = 1.69356e-06, Final residual = 8.04152e-07, No Iterations 5
time step continuity errors : sum local = 2.2966e-09, global = -1.0788e-19, cumulative = 3.28273e-17
ExecutionTime = 9.52441 s  ClockTime = 9 s

Time = 48.96s

Courant Number mean: 0.747533 max: 3.10255
smoothSolver:  Solving for Ux, Initial residual = 2.08869e-07, Final residual = 2.08869e-07, No Iterations 0
smoothSolver:  Solving for Uy, Initial residual = 5.66702e-07, Final residual = 5.66702e-07, No Iterations 0
DICPCG:  Solving for p, Initial residual = 1.57292e-06, Final residual = 9.48232e-07, No Iterations 10
time step continuity errors : sum local = 2.59253e-09, global = -3.74752e-19, cumulative = 3.24525e-17
DICPCG:  Solving for p, Initial residual = 1.64491e-06, Final residual = 9.55493e-07, No Iterations 4
time step continuity errors : sum local = 2.61214e-09, global = 3.93702e-20, cumulative = 3.24919e-17
ExecutionTime = 9.52747 s  ClockTime = 9 s

Time = 49.005s

Courant Number mean: 0.747533 max: 3.10255
smoothSolver:  Solving for Ux, Initial residual = 2.54135e-07, Final residual = 2.54135e-07, No Iterations 0
smoothSolver:  Solving for Uy, Initial residual = 4.20079e-07, Final residual = 4.20079e-07, No Iterations 0
DICPCG:  Solving for p, Initial residual = 1.75679e-06, Final residual = 9.46707e-07, No Iterations 2
time step continuity errors : sum local = 2.58136e-09, global = -4.68516e-19, cumulative = 3.20234e-17
DICPCG:  Solving for p, Initial residual = 1.64653e-06, Final residual = 8.12461e-07, No Iterations 6
time step continuity errors : sum local = 2.2502e-09, global = 6.70045e-19, cumulative = 3.26934e-17
ExecutionTime = 9.53006 s  ClockTime = 9 s

Time = 49.05s

Courant Number mean: 0.747533 max: 3.10255
smoothSolver:  Solving for Ux, Initial residual = 2.71554e-07, Final residual = 2.71554e-07, No Iterations 0
smoothSolver:  Solving for Uy, Initial residual = 4.05827e-07, Final residual = 4.05827e-07, No Iterations 0
DICPCG:  Solving for p, Initial residual = 1.5614e-06, Final residual = 7.77317e-07, No Iterations 3
time step continuity errors : sum local = 2.16069e-09, global = -1.35004e-19, cumulative = 3.25584e-17
DICPCG:  Solving for p, Initial residual = 1.40289e-06, Final residual = 8.65273e-07, No Iterations 2
time step continuity errors : sum local = 2.38105e-09, global = -1.06493e-18, cumulative = 3.14935e-17
ExecutionTime = 9.54664 s  ClockTime = 9 s

Time = 49.095s

Courant Number mean: 0.747533 max: 3.10255
smoothSolver:  Solving for Ux, Initial residual = 2.69627e-07, Final residual = 2.69627e-07, No Iterations 0
smoothSolver:  Solving for Uy, Initial residual = 3.83988e-07, Final residual = 3.83988e-07, No Iterations 0
DICPCG:  Solving for p, Initial residual = 1.66648e-06, Final residual = 7.73512e-07, No Iterations 6
time step continuity errors : sum local = 2.14717e-09, global = 5.77091e-19, cumulative = 3.20706e-17
DICPCG:  Solving for p, Initial residual = 1.39028e-06, Final residual = 5.22286e-07, No Iterations 3
time step continuity errors : sum local = 1.51381e-09, global = 1.5381e-18, cumulative = 3.36087e-17
ExecutionTime = 9.55585 s  ClockTime = 9 s

Time = 49.14s

Courant Number mean: 0.747534 max: 3.10255
smoothSolver:  Solving for Ux, Initial residual = 2.61618e-07, Final residual = 2.61618e-07, No Iterations 0
smoothSolver:  Solving for Uy, Initial residual = 3.91664e-07, Final residual = 3.91664e-07, No Iterations 0
DICPCG:  Solving for p, Initial residual = 1.04325e-06, Final residual = 8.99651e-07, No Iterations 2
time step continuity errors : sum local = 2.45923e-09, global = 3.37663e-19, cumulative = 3.39463e-17
DICPCG:  Solving for p, Initial residual = 1.57992e-06, Final residual = 9.66076e-07, No Iterations 1
time step continuity errors : sum local = 2.62316e-09, global = -4.36011e-19, cumulative = 3.35103e-17
ExecutionTime = 9.55803 s  ClockTime = 9 s

Time = 49.185s

Courant Number mean: 0.747534 max: 3.10255
smoothSolver:  Solving for Ux, Initial residual = 2.58796e-07, Final residual = 2.58796e-07, No Iterations 0
smoothSolver:  Solving for Uy, Initial residual = 3.80669e-07, Final residual = 3.80669e-07, No Iterations 0
DICPCG:  Solving for p, Initial residual = 1.48146e-06, Final residual = 8.40671e-07, No Iterations 1
time step continuity errors : sum local = 2.30575e-09, global = 4.13142e-19, cumulative = 3.39235e-17
DICPCG:  Solving for p, Initial residual = 1.12751e-06, Final residual = 8.39698e-07, No Iterations 6
time step continuity errors : sum local = 2.30319e-09, global = 4.70344e-19, cumulative = 3.43938e-17
ExecutionTime = 9.56041 s  ClockTime = 9 s

Time = 49.23s

Courant Number mean: 0.747534 max: 3.10255
smoothSolver:  Solving for Ux, Initial residual = 2.52257e-07, Final residual = 2.52257e-07, No Iterations 0
smoothSolver:  Solving for Uy, Initial residual = 4.40812e-07, Final residual = 4.40812e-07, No Iterations 0
DICPCG:  Solving for p, Initial residual = 1.62258e-06, Final residual = 7.66515e-07, No Iterations 5
time step continuity errors : sum local = 2.13473e-09, global = 1.2842e-19, cumulative = 3.45222e-17
DICPCG:  Solving for p, Initial residual = 1.35031e-06, Final residual = 7.40731e-07, No Iterations 3
time step continuity errors : sum local = 2.07873e-09, global = -3.6437e-20, cumulative = 3.44858e-17
ExecutionTime = 9.56297 s  ClockTime = 9 s

Time = 49.275s

Courant Number mean: 0.747534 max: 3.10255
smoothSolver:  Solving for Ux, Initial residual = 2.4451e-07, Final residual = 2.4451e-07, No Iterations 0
smoothSolver:  Solving for Uy, Initial residual = 4.08026e-07, Final residual = 4.08026e-07, No Iterations 0
DICPCG:  Solving for p, Initial residual = 1.41606e-06, Final residual = 8.137e-07, No Iterations 2
time step continuity errors : sum local = 2.25991e-09, global = 9.28281e-19, cumulative = 3.54141e-17
DICPCG:  Solving for p, Initial residual = 1.51291e-06, Final residual = 9.96374e-07, No Iterations 1
time step continuity errors : sum local = 2.71541e-09, global = 6.12361e-19, cumulative = 3.60264e-17
ExecutionTime = 9.56509 s  ClockTime = 9 s

Time = 49.32s

Courant Number mean: 0.747534 max: 3.10255
smoothSolver:  Solving for Ux, Initial residual = 2.43125e-07, Final residual = 2.43125e-07, No Iterations 0
smoothSolver:  Solving for Uy, Initial residual = 3.98287e-07, Final residual = 3.98287e-07, No Iterations 0
DICPCG:  Solving for p, Initial residual = 1.45078e-06, Final residual = 8.3602e-07, No Iterations 1
time step continuity errors : sum local = 2.31469e-09, global = -8.5608e-19, cumulative = 3.51703e-17
DICPCG:  Solving for p, Initial residual = 1.05057e-06, Final residual = 8.99223e-07, No Iterations 6
time step continuity errors : sum local = 2.43618e-09, global = -3.87539e-19, cumulative = 3.47828e-17
ExecutionTime = 9.56757 s  ClockTime = 9 s

Time = 49.365s

Courant Number mean: 0.747534 max: 3.10255
smoothSolver:  Solving for Ux, Initial residual = 2.70053e-07, Final residual = 2.70053e-07, No Iterations 0
smoothSolver:  Solving for Uy, Initial residual = 4.10876e-07, Final residual = 4.10876e-07, No Iterations 0
DICPCG:  Solving for p, Initial residual = 1.68338e-06, Final residual = 7.78003e-07, No Iterations 5
time step continuity errors : sum local = 2.11435e-09, global = 1.73092e-19, cumulative = 3.49559e-17
DICPCG:  Solving for p, Initial residual = 1.40316e-06, Final residual = 9.16031e-07, No Iterations 3
time step continuity errors : sum local = 2.45629e-09, global = 3.17586e-19, cumulative = 3.52735e-17
ExecutionTime = 9.57014 s  ClockTime = 9 s

Time = 49.41s

Courant Number mean: 0.747534 max: 3.10255
smoothSolver:  Solving for Ux, Initial residual = 2.62525e-07, Final residual = 2.62525e-07, No Iterations 0
smoothSolver:  Solving for Uy, Initial residual = 3.77893e-07, Final residual = 3.77893e-07, No Iterations 0
DICPCG:  Solving for p, Initial residual = 1.72411e-06, Final residual = 8.20467e-07, No Iterations 8
time step continuity errors : sum local = 2.22968e-09, global = 5.29913e-19, cumulative = 3.58034e-17
DICPCG:  Solving for p, Initial residual = 1.43085e-06, Final residual = 8.61328e-07, No Iterations 2
time step continuity errors : sum local = 2.35034e-09, global = 7.965e-20, cumulative = 3.5883e-17
ExecutionTime = 9.57283 s  ClockTime = 9 s

Time = 49.455s

Courant Number mean: 0.747534 max: 3.10255
smoothSolver:  Solving for Ux, Initial residual = 2.53646e-07, Final residual = 2.53646e-07, No Iterations 0
smoothSolver:  Solving for Uy, Initial residual = 3.89464e-07, Final residual = 3.89464e-07, No Iterations 0
DICPCG:  Solving for p, Initial residual = 1.57408e-06, Final residual = 8.09645e-07, No Iterations 7
time step continuity errors : sum local = 2.22817e-09, global = -9.98473e-20, cumulative = 3.57832e-17
DICPCG:  Solving for p, Initial residual = 1.44707e-06, Final residual = 9.27265e-07, No Iterations 2
time step continuity errors : sum local = 2.51948e-09, global = -8.51858e-20, cumulative = 3.5698e-17
ExecutionTime = 9.57542 s  ClockTime = 9 s

Time = 49.5s

Courant Number mean: 0.747534 max: 3.10255
smoothSolver:  Solving for Ux, Initial residual = 2.48008e-07, Final residual = 2.48008e-07, No Iterations 0
smoothSolver:  Solving for Uy, Initial residual = 3.8234e-07, Final residual = 3.8234e-07, No Iterations 0
DICPCG:  Solving for p, Initial residual = 1.72533e-06, Final residual = 8.53693e-07, No Iterations 2
time step continuity errors : sum local = 2.3315e-09, global = 3.26593e-19, cumulative = 3.60246e-17
DICPCG:  Solving for p, Initial residual = 1.50348e-06, Final residual = 8.35279e-07, No Iterations 1
time step continuity errors : sum local = 2.28587e-09, global = 8.55477e-20, cumulative = 3.61102e-17
ExecutionTime = 9.59247 s  ClockTime = 9 s

Time = 49.545s

Courant Number mean: 0.747534 max: 3.10255
smoothSolver:  Solving for Ux, Initial residual = 2.44091e-07, Final residual = 2.44091e-07, No Iterations 0
smoothSolver:  Solving for Uy, Initial residual = 3.7682e-07, Final residual = 3.7682e-07, No Iterations 0
DICPCG:  Solving for p, Initial residual = 1.25701e-06, Final residual = 8.85895e-07, No Iterations 1
time step continuity errors : sum local = 2.41095e-09, global = 9.89986e-20, cumulative = 3.62092e-17
DICPCG:  Solving for p, Initial residual = 1.12184e-06, Final residual = 6.8075e-07, No Iterations 4
time step continuity errors : sum local = 1.874e-09, global = -4.5009e-19, cumulative = 3.57591e-17
ExecutionTime = 9.60153 s  ClockTime = 9 s

Time = 49.59s

Courant Number mean: 0.747534 max: 3.10255
smoothSolver:  Solving for Ux, Initial residual = 2.5138e-07, Final residual = 2.5138e-07, No Iterations 0
smoothSolver:  Solving for Uy, Initial residual = 3.95746e-07, Final residual = 3.95746e-07, No Iterations 0
DICPCG:  Solving for p, Initial residual = 1.38365e-06, Final residual = 8.69051e-07, No Iterations 4
time step continuity errors : sum local = 2.36919e-09, global = -2.36129e-20, cumulative = 3.57354e-17
DICPCG:  Solving for p, Initial residual = 1.47739e-06, Final residual = 8.88586e-07, No Iterations 3
time step continuity errors : sum local = 2.41213e-09, global = 7.67431e-19, cumulative = 3.65029e-17
ExecutionTime = 9.60397 s  ClockTime = 9 s

Time = 49.635s

Courant Number mean: 0.747534 max: 3.10255
smoothSolver:  Solving for Ux, Initial residual = 2.47739e-07, Final residual = 2.47739e-07, No Iterations 0
smoothSolver:  Solving for Uy, Initial residual = 3.81201e-07, Final residual = 3.81201e-07, No Iterations 0
DICPCG:  Solving for p, Initial residual = 1.62273e-06, Final residual = 9.63922e-07, No Iterations 2
time step continuity errors : sum local = 2.60702e-09, global = 9.81261e-19, cumulative = 3.74841e-17
DICPCG:  Solving for p, Initial residual = 1.74085e-06, Final residual = 7.02549e-07, No Iterations 6
time step continuity errors : sum local = 1.95182e-09, global = 6.13914e-20, cumulative = 3.75455e-17
ExecutionTime = 9.6065 s  ClockTime = 9 s

Time = 49.68s

Courant Number mean: 0.747534 max: 3.10255
smoothSolver:  Solving for Ux, Initial residual = 2.57361e-07, Final residual = 2.57361e-07, No Iterations 0
smoothSolver:  Solving for Uy, Initial residual = 3.86375e-07, Final residual = 3.86375e-07, No Iterations 0
DICPCG:  Solving for p, Initial residual = 1.32994e-06, Final residual = 9.48292e-07, No Iterations 3
time step continuity errors : sum local = 2.56653e-09, global = -9.5589e-20, cumulative = 3.74499e-17
DICPCG:  Solving for p, Initial residual = 1.69787e-06, Final residual = 5.44543e-07, No Iterations 7
time step continuity errors : sum local = 1.54102e-09, global = 9.64317e-20, cumulative = 3.75464e-17
ExecutionTime = 9.60915 s  ClockTime = 9 s

Time = 49.725s

Courant Number mean: 0.747534 max: 3.10255
smoothSolver:  Solving for Ux, Initial residual = 2.51168e-07, Final residual = 2.51168e-07, No Iterations 0
smoothSolver:  Solving for Uy, Initial residual = 3.71795e-07, Final residual = 3.71795e-07, No Iterations 0
DICPCG:  Solving for p, Initial residual = 1.0534e-06, Final residual = 9.88305e-07, No Iterations 1
time step continuity errors : sum local = 2.65561e-09, global = 6.56723e-19, cumulative = 3.82031e-17
DICPCG:  Solving for p, Initial residual = 1.49938e-06, Final residual = 9.25835e-07, No Iterations 1
time step continuity errors : sum local = 2.49681e-09, global = 5.54516e-19, cumulative = 3.87576e-17
ExecutionTime = 9.61123 s  ClockTime = 9 s

Time = 49.77s

Courant Number mean: 0.747535 max: 3.10255
smoothSolver:  Solving for Ux, Initial residual = 2.465e-07, Final residual = 2.465e-07, No Iterations 0
smoothSolver:  Solving for Uy, Initial residual = 3.66539e-07, Final residual = 3.66539e-07, No Iterations 0
DICPCG:  Solving for p, Initial residual = 1.48215e-06, Final residual = 9.8373e-07, No Iterations 5
time step continuity errors : sum local = 2.64748e-09, global = 1.9256e-19, cumulative = 3.89502e-17
DICPCG:  Solving for p, Initial residual = 1.71762e-06, Final residual = 4.34225e-07, No Iterations 4
time step continuity errors : sum local = 1.27974e-09, global = 1.00158e-18, cumulative = 3.99518e-17
ExecutionTime = 9.61391 s  ClockTime = 9 s

Time = 49.815s

Courant Number mean: 0.747535 max: 3.10255
smoothSolver:  Solving for Ux, Initial residual = 2.41269e-07, Final residual = 2.41269e-07, No Iterations 0
smoothSolver:  Solving for Uy, Initial residual = 3.71089e-07, Final residual = 3.71089e-07, No Iterations 0
DICPCG:  Solving for p, Initial residual = 1.008e-06, Final residual = 5.76614e-07, No Iterations 2
time step continuity errors : sum local = 1.6377e-09, global = 8.17959e-19, cumulative = 4.07697e-17
DICPCG:  Solving for p, Initial residual = 1.03971e-06, Final residual = 7.0175e-07, No Iterations 1
time step continuity errors : sum local = 1.94535e-09, global = 1.29577e-19, cumulative = 4.08993e-17
ExecutionTime = 9.61606 s  ClockTime = 9 s

Time = 49.86s

Courant Number mean: 0.747535 max: 3.10255
smoothSolver:  Solving for Ux, Initial residual = 2.38366e-07, Final residual = 2.38366e-07, No Iterations 0
smoothSolver:  Solving for Uy, Initial residual = 3.62855e-07, Final residual = 3.62855e-07, No Iterations 0
DICPCG:  Solving for p, Initial residual = 1.12553e-06, Final residual = 6.68078e-07, No Iterations 1
time step continuity errors : sum local = 1.86342e-09, global = -2.12035e-19, cumulative = 4.06873e-17
DICPCG:  Solving for p, Initial residual = 9.30986e-07, Final residual = 9.30986e-07, No Iterations 0
time step continuity errors : sum local = 2.52266e-09, global = -3.96084e-20, cumulative = 4.06476e-17
ExecutionTime = 9.61803 s  ClockTime = 9 s

Time = 49.905s

Courant Number mean: 0.747535 max: 3.10255
smoothSolver:  Solving for Ux, Initial residual = 2.36821e-07, Final residual = 2.36821e-07, No Iterations 0
smoothSolver:  Solving for Uy, Initial residual = 3.59578e-07, Final residual = 3.59578e-07, No Iterations 0
DICPCG:  Solving for p, Initial residual = 1.24409e-06, Final residual = 9.69461e-07, No Iterations 5
time step continuity errors : sum local = 2.59368e-09, global = -1.10286e-18, cumulative = 3.95448e-17
DICPCG:  Solving for p, Initial residual = 1.62738e-06, Final residual = 9.85847e-07, No Iterations 3
time step continuity errors : sum local = 2.62575e-09, global = -6.03996e-19, cumulative = 3.89408e-17
ExecutionTime = 9.62051 s  ClockTime = 9 s

Time = 49.95s

Courant Number mean: 0.747535 max: 3.10255
smoothSolver:  Solving for Ux, Initial residual = 2.55268e-07, Final residual = 2.55268e-07, No Iterations 0
smoothSolver:  Solving for Uy, Initial residual = 3.74456e-07, Final residual = 3.74456e-07, No Iterations 0
DICPCG:  Solving for p, Initial residual = 1.97149e-06, Final residual = 9.40077e-07, No Iterations 4
time step continuity errors : sum local = 2.52928e-09, global = -7.05488e-19, cumulative = 3.82353e-17
DICPCG:  Solving for p, Initial residual = 1.72988e-06, Final residual = 9.41555e-07, No Iterations 2
time step continuity errors : sum local = 2.53096e-09, global = -1.00742e-18, cumulative = 3.72279e-17
ExecutionTime = 9.63707 s  ClockTime = 9 s

Time = 49.995s

Courant Number mean: 0.747535 max: 3.10255
smoothSolver:  Solving for Ux, Initial residual = 2.38864e-07, Final residual = 2.38864e-07, No Iterations 0
smoothSolver:  Solving for Uy, Initial residual = 3.64101e-07, Final residual = 3.64101e-07, No Iterations 0
DICPCG:  Solving for p, Initial residual = 1.81613e-06, Final residual = 8.19367e-07, No Iterations 2
time step continuity errors : sum local = 2.22886e-09, global = -3.50177e-19, cumulative = 3.68777e-17
DICPCG:  Solving for p, Initial residual = 1.5343e-06, Final residual = 7.61705e-07, No Iterations 1
time step continuity errors : sum local = 2.08588e-09, global = -1.36455e-18, cumulative = 3.55131e-17
ExecutionTime = 9.64574 s  ClockTime = 9 s

End

